
Note: Compatibility modes selected: hs a

Warning: m=xx on .subckt line will override multiplier m hierarchy!

Warning: redefinition of .subckt hgu_cdac_unit, ignored

Circuit: ** sch_path: /foss/designs/hgu_goss/hgu/xschem/hgu_top.sch

option SCALE: Scale is set to 1e-06 for instance and model parameters
Doing analysis at TEMP = 27.000000 and TNOM = 27.000000

Warning: singular matrix:  check node net41

Note: Starting dynamic gmin stepping
Trying gmin =   1.0000E-03 Note: One successful gmin step
Trying gmin =   1.0000E-04 Note: One successful gmin step
Trying gmin =   1.0000E-05 Note: One successful gmin step
Trying gmin =   1.0000E-06 Warning: Further gmin increment
Trying gmin =   5.6234E-06 Note: One successful gmin step
Trying gmin =   2.3714E-06 Note: One successful gmin step
Trying gmin =   1.0000E-06 Note: One successful gmin step
Trying gmin =   2.7384E-07 Note: One successful gmin step
Trying gmin =   3.9242E-08 Note: One successful gmin step
Trying gmin =   3.9242E-09 Note: One successful gmin step
Trying gmin =   3.9242E-10 Note: One successful gmin step
Trying gmin =   3.9242E-11 Warning: Further gmin increment
Trying gmin =   2.2067E-10 Note: One successful gmin step
Trying gmin =   9.3057E-11 Note: One successful gmin step
Trying gmin =   2.5483E-11 Warning: Further gmin increment
Trying gmin =   6.7317E-11 Note: One successful gmin step
Trying gmin =   4.1418E-11 Warning: Further gmin increment
Trying gmin =   5.9620E-11 Note: One successful gmin step
Trying gmin =   4.9692E-11 Note: One successful gmin step
Trying gmin =   3.7813E-11 Warning: Further gmin increment
Trying gmin =   4.6412E-11 Note: One successful gmin step
Trying gmin =   4.1892E-11 Note: One successful gmin step
Trying gmin =   3.5924E-11 Warning: Further gmin increment
Trying gmin =   4.0313E-11 Note: One successful gmin step
Trying gmin =   3.8056E-11 Warning: Further gmin increment
Trying gmin =   3.9736E-11 Warning: Further gmin increment
Trying gmin =   4.0168E-11 Note: One successful gmin step
Trying gmin =   3.9952E-11 Warning: Further gmin increment
Trying gmin =   4.0114E-11 Note: One successful gmin step
Trying gmin =   4.0033E-11 Note: One successful gmin step
Trying gmin =   3.9911E-11 Warning: Further gmin increment
Trying gmin =   4.0002E-11 Warning: Further gmin increment
Trying gmin =   4.0025E-11 Warning: Further gmin increment
Trying gmin =   4.0031E-11 Note: One successful gmin step
Trying gmin =   4.0028E-11 Warning: Further gmin increment
Trying gmin =   4.0030E-11 Note: One successful gmin step
Trying gmin =   4.0029E-11 Note: One successful gmin step
Trying gmin =   4.0027E-11 Warning: Further gmin increment
Trying gmin =   4.0029E-11 Warning: Last gmin step failed
Warning: singular matrix:  check node net41

Warning: Dynamic gmin stepping failed
Note: Starting true gmin stepping
Trying gmin =   1.0000E-03 Warning: singular matrix:  check node net41

Warning: Further gmin increment
Trying gmin =   5.6234E-03 Warning: singular matrix:  check node net41

Warning: Further gmin increment
Trying gmin =   8.6596E-03 Warning: singular matrix:  check node net41

Warning: Further gmin increment
Trying gmin =   9.6466E-03 Warning: singular matrix:  check node net41

Warning: Further gmin increment
Trying gmin =   9.9105E-03 Warning: Further gmin increment
Trying gmin =   9.9775E-03 Warning: Further gmin increment
Trying gmin =   9.9944E-03 Warning: Further gmin increment
Trying gmin =   9.9986E-03 Warning: Further gmin increment
Trying gmin =   9.9996E-03 Warning: Last gmin step failed
Warning: True gmin stepping failed
Note: Starting source stepping
Supplies reduced to   0.0000% 
Trying gmin =   1.0000E-02 Note: One successful gmin step
Trying gmin =   1.0000E-03 Note: One successful gmin step
Trying gmin =   1.0000E-04 Note: One successful gmin step
Trying gmin =   1.0000E-05 Note: One successful gmin step
Trying gmin =   1.0000E-06 Note: One successful gmin step
Trying gmin =   1.0000E-07 Note: One successful gmin step
Trying gmin =   1.0000E-08 Note: One successful gmin step
Trying gmin =   1.0000E-09 Note: One successful gmin step
Trying gmin =   1.0000E-10 Note: One successful gmin step
Trying gmin =   1.0000E-11 Note: One successful gmin step
Trying gmin =   1.0000E-12 Note: One successful gmin step
Note: One successful source step
Supplies reduced to   0.1000% Supplies reduced to   0.0000% Warning: source stepping failed
Note: Transient op started
Note: Transient op finished successfully

Initial Transient Solution
--------------------------

Node                                   Voltage
----                                   -------
vpwr                                       1.8
sample_clk                         3.44637e-05
vpb                                        1.8
x1.x1.net2                             1.80001
vnb                                          0
vss                                          0
x1.x1.net4                             1.79995
vgnd                                         0
x1.eob                                 1.80001
sar_clk                           -3.41343e-05
x1.x1.net6                         9.84376e-05
vdd                                        1.8
x1.x1.net5                             1.80042
x1.x1.net7                         1.23784e-05
x1.x1.net1                             1.79997
x1.x1.net3                         -0.00669779
x1.x1.x2.net1                      0.000103436
x1.x1.x2.net3                          1.35602
x1.x1.x2.net2                          1.80012
async_setb_delay_cap_ctrl_code[0]             1.8
x1.x1.x2.x2.net1                  -5.69199e-05
async_setb_delay_cap_ctrl_code[1]             1.8
x1.x1.x2.x3[1].net1               -5.69199e-05
x1.x1.x2.x3[0].net1               -5.69199e-05
async_setb_delay_cap_ctrl_code[2]               0
x1.x1.x2.x4[3].net1                -4.8001e-08
x1.x1.x2.x4[2].net1                -4.8001e-08
x1.x1.x2.x4[1].net1                -4.8001e-08
x1.x1.x2.x4[0].net1                -4.8001e-08
x1.x1.x2.x5[7].net1                    1.77649
x1.x1.x2.net4                          1.79977
x1.x1.x2.x5[6].net1                    1.77649
x1.x1.x2.x5[5].net1                    1.77649
x1.x1.x2.x5[4].net1                    1.77649
x1.x1.x2.x5[3].net1                    1.77649
x1.x1.x2.x5[2].net1                    1.77649
x1.x1.x2.x5[1].net1                    1.77649
x1.x1.x2.x5[0].net1                    1.77649
async_setb_delay_cap_ctrl_code[3]               0
x1.x1.x2.x7.net1                   -4.8001e-08
x1.x1.x2.x6.net1                       1.77649
x1.x1.x2.net5                          1.79964
ready                                  1.80009
x1.x1.x2.x8.net1                       1.71912
x1.x1.x2.x8.net2                       1.71924
x1.x1.x2.x8.net3                       1.71924
x1.x1.x2.x8.net4                       1.71924
x1.x1.x2.x8.net5                       1.71922
x1.x1.x2.x9.net1                   6.11275e-05
x1.x1.x2.x9.net2                   2.04324e-05
x1.x1.x2.x9.net3                   8.61859e-06
x1.x1.x2.x9.net4                   2.33658e-05
x1.x1.x2.x9.net5                   5.26485e-05
x1.x1.x2.x9.net6                   8.41484e-05
x1.x1.x2.x9.net7                   0.000109015
x1.x1.x2.x9.net8                    0.00012273
x1.x1.x2.x9.net9                   0.000124601
x1.x1.x2.x9.net10                  0.000116662
x1.x1.x2.x9.net11                  0.000102343
x1.x1.x2.x9.net12                  8.50756e-05
x1.x1.x2.x9.net13                   6.6972e-05
x1.x1.x2.x9.net14                  4.79387e-05
x1.x1.x2.x9.net15                  2.59484e-05
x1.x1.x4.net1                          1.80018
x1.x1.x4.net3                      -0.00368093
x1.x1.x4.net2                         0.459509
async_resetb_delay_cap_ctrl_code[0]             1.8
x1.x1.x4.x2.net1                       1.32036
async_resetb_delay_cap_ctrl_code[1]             1.8
x1.x1.x4.x3[1].net1                    1.32036
x1.x1.x4.x3[0].net1                    1.32036
async_resetb_delay_cap_ctrl_code[2]               0
x1.x1.x4.x4[3].net1                6.46357e-05
x1.x1.x4.x4[2].net1                6.46357e-05
x1.x1.x4.x4[1].net1                6.46357e-05
x1.x1.x4.x4[0].net1                6.46357e-05
x1.x1.x4.x5[7].net1                    1.79375
x1.x1.x4.net4                          1.79977
x1.x1.x4.x5[6].net1                    1.79375
x1.x1.x4.x5[5].net1                    1.79375
x1.x1.x4.x5[4].net1                    1.79375
x1.x1.x4.x5[3].net1                    1.79375
x1.x1.x4.x5[2].net1                    1.79375
x1.x1.x4.x5[1].net1                    1.79375
x1.x1.x4.x5[0].net1                    1.79375
async_resetb_delay_cap_ctrl_code[3]               0
x1.x1.x4.x7.net1                   6.46357e-05
x1.x1.x4.x6.net1                       1.79375
x1.x1.x4.net5                          1.79964
x1.x1.x4.x8.net1                       1.79855
x1.x1.x4.x8.net2                       1.79789
x1.x1.x4.x8.net3                       1.79797
x1.x1.x4.x8.net4                       1.79848
x1.x1.x4.x8.net5                       1.79918
x1.x1.x4.x9.net1                   0.000414438
x1.x1.x4.x9.net2                  -9.90111e-06
x1.x1.x4.x9.net3                  -8.85832e-06
x1.x1.x4.x9.net4                   -8.8534e-06
x1.x1.x4.x9.net5                   -8.8534e-06
x1.x1.x4.x9.net6                  -8.85326e-06
x1.x1.x4.x9.net7                  -8.85338e-06
x1.x1.x4.x9.net8                  -8.85327e-06
x1.x1.x4.x9.net9                  -8.85337e-06
x1.x1.x4.x9.net10                 -8.85325e-06
x1.x1.x4.x9.net11                 -8.85341e-06
x1.x1.x4.x9.net12                 -8.85341e-06
x1.x1.x4.x9.net13                 -8.85317e-06
x1.x1.x4.x9.net14                 -8.81546e-06
x1.x1.x4.x9.net15                 -8.84398e-06
x1.x2.x1.net2                          1.79951
x1.x2.x1.d_loop                    7.11524e-05
x1.x2.x1.net1                          1.79953
x1.x2.net2                             1.80005
ext_clk                                      0
x1.x2.x2.net1                              1.8
x1.x2.x2.x4.net1                   9.76456e-05
x1.x2.x2.x4.net3                       1.35603
x1.x2.x2.x4.net2                       1.80007
cap_ctrl_code[0]                           1.8
x1.x2.x2.x4.x2.net1               -6.34903e-05
cap_ctrl_code[1]                           1.8
x1.x2.x2.x4.x3[1].net1            -6.34903e-05
x1.x2.x2.x4.x3[0].net1            -6.34903e-05
cap_ctrl_code[2]                             0
x1.x2.x2.x4.x4[3].net1            -4.54612e-08
x1.x2.x2.x4.x4[2].net1            -4.54612e-08
x1.x2.x2.x4.x4[1].net1            -4.54612e-08
x1.x2.x2.x4.x4[0].net1            -4.54612e-08
x1.x2.x2.x4.x5[7].net1                 1.77649
x1.x2.x2.x4.net4                       1.79977
x1.x2.x2.x4.x5[6].net1                 1.77649
x1.x2.x2.x4.x5[5].net1                 1.77649
x1.x2.x2.x4.x5[4].net1                 1.77649
x1.x2.x2.x4.x5[3].net1                 1.77649
x1.x2.x2.x4.x5[2].net1                 1.77649
x1.x2.x2.x4.x5[1].net1                 1.77649
x1.x2.x2.x4.x5[0].net1                 1.77649
cap_ctrl_code[3]                             0
x1.x2.x2.x4.x7.net1               -4.54612e-08
x1.x2.x2.x4.x6.net1                    1.77649
x1.x2.x2.x4.net5                       1.79964
x1.x2.x2.x4.x8.net1                    1.71912
x1.x2.x2.x4.x8.net2                    1.71924
x1.x2.x2.x4.x8.net3                    1.71924
x1.x2.x2.x4.x8.net4                    1.71924
x1.x2.x2.x4.x8.net5                    1.71921
x1.x2.x2.x4.x9.net1                3.98938e-05
x1.x2.x2.x4.x9.net2               -6.45359e-06
x1.x2.x2.x4.x9.net3               -1.33556e-05
x1.x2.x2.x4.x9.net4                1.18589e-05
x1.x2.x2.x4.x9.net5                5.22109e-05
x1.x2.x2.x4.x9.net6                9.21953e-05
x1.x2.x2.x4.x9.net7                0.000121497
x1.x2.x2.x4.x9.net8                0.000135287
x1.x2.x2.x4.x9.net9                0.000133188
x1.x2.x2.x4.x9.net10                0.00011793
x1.x2.x2.x4.x9.net11               9.40816e-05
x1.x2.x2.x4.x9.net12               6.69222e-05
x1.x2.x2.x4.x9.net13               4.14166e-05
x1.x2.x2.x4.x9.net14               2.12208e-05
x1.x2.x2.x4.x9.net15               7.79819e-06
x1.x2.x2.net2                              1.8
x1.x2.x2.x1.net1                    0.00011191
x1.x2.x2.x1.net3                       1.35603
x1.x2.x2.x1.net2                       1.80006
cap_ctrl_code[4]                           1.8
x1.x2.x2.x1.x2.net1               -5.45269e-05
cap_ctrl_code[5]                           1.8
x1.x2.x2.x1.x3[1].net1            -5.45269e-05
x1.x2.x2.x1.x3[0].net1            -5.45269e-05
cap_ctrl_code[6]                             0
x1.x2.x2.x1.x4[3].net1            -5.39567e-08
x1.x2.x2.x1.x4[2].net1            -5.39567e-08
x1.x2.x2.x1.x4[1].net1            -5.39567e-08
x1.x2.x2.x1.x4[0].net1            -5.39567e-08
x1.x2.x2.x1.x5[7].net1                 1.77649
x1.x2.x2.x1.net4                       1.79977
x1.x2.x2.x1.x5[6].net1                 1.77649
x1.x2.x2.x1.x5[5].net1                 1.77649
x1.x2.x2.x1.x5[4].net1                 1.77649
x1.x2.x2.x1.x5[3].net1                 1.77649
x1.x2.x2.x1.x5[2].net1                 1.77649
x1.x2.x2.x1.x5[1].net1                 1.77649
x1.x2.x2.x1.x5[0].net1                 1.77649
cap_ctrl_code[7]                             0
x1.x2.x2.x1.x7.net1               -5.39567e-08
x1.x2.x2.x1.x6.net1                    1.77649
x1.x2.x2.x1.net5                       1.79964
x1.x2.x2.x1.x8.net1                    1.71907
x1.x2.x2.x1.x8.net2                    1.71923
x1.x2.x2.x1.x8.net3                    1.71923
x1.x2.x2.x1.x8.net4                    1.71923
x1.x2.x2.x1.x8.net5                    1.71924
x1.x2.x2.x1.x9.net1                5.25091e-05
x1.x2.x2.x1.x9.net2                2.31613e-06
x1.x2.x2.x1.x9.net3               -1.73373e-05
x1.x2.x2.x1.x9.net4               -1.61608e-05
x1.x2.x2.x1.x9.net5               -7.55248e-06
x1.x2.x2.x1.x9.net6               -2.71938e-07
x1.x2.x2.x1.x9.net7                2.31979e-06
x1.x2.x2.x1.x9.net8                6.58602e-07
x1.x2.x2.x1.x9.net9               -2.89827e-06
x1.x2.x2.x1.x9.net10              -5.58162e-06
x1.x2.x2.x1.x9.net11              -5.30195e-06
x1.x2.x2.x1.x9.net12              -1.43042e-06
x1.x2.x2.x1.x9.net13               4.68936e-06
x1.x2.x2.x1.x9.net14               9.66888e-06
x1.x2.x2.x1.x9.net15               8.98271e-06
x1.x2.x2.net3                              1.8
x1.x2.x2.x2.net1                   0.000113356
x1.x2.x2.x2.net3                       1.35603
x1.x2.x2.x2.net2                       1.80006
cap_ctrl_code[8]                           1.8
x1.x2.x2.x2.x2.net1               -5.28636e-05
cap_ctrl_code[9]                           1.8
x1.x2.x2.x2.x3[1].net1            -5.28636e-05
x1.x2.x2.x2.x3[0].net1            -5.28636e-05
cap_ctrl_code[10]                            0
x1.x2.x2.x2.x4[3].net1            -5.47442e-08
x1.x2.x2.x2.x4[2].net1            -5.47442e-08
x1.x2.x2.x2.x4[1].net1            -5.47442e-08
x1.x2.x2.x2.x4[0].net1            -5.47442e-08
x1.x2.x2.x2.x5[7].net1                 1.77649
x1.x2.x2.x2.net4                       1.79977
x1.x2.x2.x2.x5[6].net1                 1.77649
x1.x2.x2.x2.x5[5].net1                 1.77649
x1.x2.x2.x2.x5[4].net1                 1.77649
x1.x2.x2.x2.x5[3].net1                 1.77649
x1.x2.x2.x2.x5[2].net1                 1.77649
x1.x2.x2.x2.x5[1].net1                 1.77649
x1.x2.x2.x2.x5[0].net1                 1.77649
cap_ctrl_code[11]                            0
x1.x2.x2.x2.x7.net1               -5.47442e-08
x1.x2.x2.x2.x6.net1                    1.77649
x1.x2.x2.x2.net5                       1.79964
x1.x2.x2.x2.x8.net1                    1.71907
x1.x2.x2.x2.x8.net2                    1.71923
x1.x2.x2.x2.x8.net3                    1.71923
x1.x2.x2.x2.x8.net4                    1.71923
x1.x2.x2.x2.x8.net5                    1.71924
x1.x2.x2.x2.x9.net1                5.25641e-05
x1.x2.x2.x2.x9.net2                 1.2541e-06
x1.x2.x2.x2.x9.net3               -1.94928e-05
x1.x2.x2.x2.x9.net4               -1.95606e-05
x1.x2.x2.x2.x9.net5               -1.22949e-05
x1.x2.x2.x2.x9.net6               -6.27634e-06
x1.x2.x2.x2.x9.net7               -4.67557e-06
x1.x2.x2.x2.x9.net8               -6.92069e-06
x1.x2.x2.x2.x9.net9               -1.05929e-05
x1.x2.x2.x2.x9.net10              -1.29288e-05
x1.x2.x2.x2.x9.net11              -1.18944e-05
x1.x2.x2.x2.x9.net12              -6.94747e-06
x1.x2.x2.x2.x9.net13               4.66456e-07
x1.x2.x2.x2.x9.net14               6.85415e-06
x1.x2.x2.x2.x9.net15               7.59638e-06
x1.x2.net8                             1.79997
x1.x2.x2.x3.net1                    0.00011098
x1.x2.x2.x3.net3                       1.35602
x1.x2.x2.x3.net2                       1.80011
cap_ctrl_code[12]                          1.8
x1.x2.x2.x3.x2.net1               -5.10377e-05
cap_ctrl_code[13]                          1.8
x1.x2.x2.x3.x3[1].net1            -5.10377e-05
x1.x2.x2.x3.x3[0].net1            -5.10377e-05
cap_ctrl_code[14]                            0
x1.x2.x2.x3.x4[3].net1            -5.35984e-08
x1.x2.x2.x3.x4[2].net1            -5.35984e-08
x1.x2.x2.x3.x4[1].net1            -5.35984e-08
x1.x2.x2.x3.x4[0].net1            -5.35984e-08
x1.x2.x2.x3.x5[7].net1                 1.77649
x1.x2.x2.x3.net4                       1.79976
x1.x2.x2.x3.x5[6].net1                 1.77649
x1.x2.x2.x3.x5[5].net1                 1.77649
x1.x2.x2.x3.x5[4].net1                 1.77649
x1.x2.x2.x3.x5[3].net1                 1.77649
x1.x2.x2.x3.x5[2].net1                 1.77649
x1.x2.x2.x3.x5[1].net1                 1.77649
x1.x2.x2.x3.x5[0].net1                 1.77649
cap_ctrl_code[15]                            0
x1.x2.x2.x3.x7.net1               -5.35984e-08
x1.x2.x2.x3.x6.net1                    1.77649
x1.x2.x2.x3.net5                       1.79964
x1.x2.x2.x3.x8.net1                    1.71907
x1.x2.x2.x3.x8.net2                    1.71923
x1.x2.x2.x3.x8.net3                    1.71923
x1.x2.x2.x3.x8.net4                    1.71923
x1.x2.x2.x3.x8.net5                    1.71924
x1.x2.x2.x3.x9.net1                 5.1742e-05
x1.x2.x2.x3.x9.net2                1.39989e-06
x1.x2.x2.x3.x9.net3               -1.91221e-05
x1.x2.x2.x3.x9.net4               -1.93746e-05
x1.x2.x2.x3.x9.net5               -1.23785e-05
x1.x2.x2.x3.x9.net6               -6.53192e-06
x1.x2.x2.x3.x9.net7               -4.95407e-06
x1.x2.x2.x3.x9.net8               -7.10152e-06
x1.x2.x2.x3.x9.net9               -1.06161e-05
x1.x2.x2.x3.x9.net10              -1.27953e-05
x1.x2.x2.x3.x9.net11              -1.16501e-05
x1.x2.x2.x3.x9.net12              -6.66126e-06
x1.x2.x2.x3.x9.net13               7.24678e-07
x1.x2.x2.x3.x9.net14               7.03281e-06
x1.x2.x2.x3.x9.net15               7.67647e-06
x1.x2.net1                         0.000101901
x1.x2.net4                             1.80006
x1.x2.net7                         0.000370248
x1.x2.net3                             1.80012
x1.x2.net5                          0.00042536
x1.x2.net6                             1.79994
sample_clk_b                           1.80013
x1.x3.vdd.t263                             1.8
x1.x3.d[3].t0                          1.80008
x1.x3.vdd.t262                             1.8
x1.x3.vdd.t266                             1.8
x1.x3.check[1].t0                  5.22364e-05
x1.x3.vdd.t265                             1.8
x1.x3.vdd.t333                         1.80002
x1.x3.d[0].t2                          1.80001
x1.x3.vdd.t332                             1.8
x1.x3.vdd.t585                             1.8
x1.x3.eob.t3                           1.80002
x1.x3.vdd.t584                             1.8
x1.x3.vss.t550                    -3.87875e-06
x1.x3.vdd.t725                             1.8
x1.x3.vss.t246                     1.66645e-05
x1.x3.vss.t245                    -2.54774e-06
x1.x3.vdd.t542                             1.8
x1.x3.vdd.t541                             1.8
x1.x3.x4.x.t32                         1.80008
x1.x3.vss.t543                     4.55479e-06
x1.x3.vss.t542                    -1.23797e-06
x1.x3.vdd.t261                             1.8
x1.x3.vss.t586                      2.1627e-05
x1.x3.vss.t585                    -8.01399e-06
x1.x3.vss.t533                    -1.69895e-06
x1.x3.check[5].t2                       1.8002
x1.x3.vss.t150                     1.02471e-05
x1.x3.vss.t149                    -4.30489e-06
x1.x3.vdd.t609                             1.8
x1.x3.vss.t605                     3.82514e-06
x1.x3.x30.q_n                      0.000242083
x1.x3.vss.t604                    -4.77612e-07
x1.x3.vdd.t156                             1.8
x1.x3.vdd.t155                             1.8
x1.x3.vss.t570                     2.11206e-05
x1.x3.x45.q_n                          1.80012
x1.x3.vss.t569                     9.41831e-07
x1.x3.vss.t600                    -2.09478e-06
x1.x3.x72.q_n                      9.37574e-05
x1.x3.vss.t144                     2.70107e-05
x1.x3.vss.t143                    -6.87757e-06
x1.x3.vss.t521                    -1.58557e-07
x1.x3.x27.q_n                      0.000244744
x1.x3.vss.t520                    -6.71591e-07
x1.x3.x77.y                        0.000253744
x1.x3.vdd.t7                           1.80001
x1.x3.vdd.t6                               1.8
x1.x3.vdd.t637                             1.8
x1.x3.vss.t116                    -8.39272e-07
x1.x3.vss.t263                     3.33789e-05
x1.x3.x4.x.t33                         1.80008
x1.x3.vss.t262                    -3.91964e-06
x1.x3.vdd.t137                             1.8
x1.x3.vdd.t136                             1.8
x1.x3.vdd.t180                             1.8
x1.x3.check[0].t1                  0.000139667
x1.x3.vdd.t179                             1.8
x1.x3.x4.x.t34                         1.80008
x1.x3.vdd.t276                         1.80002
x1.x3.vdd.t275                             1.8
x1.x3.vss.t410                    -2.12345e-07
x1.x3.vdd.t170                         1.80002
x1.x3.x75.q                            1.79983
x1.x3.vdd.t169                             1.8
x1.x3.vss.t529                      1.9188e-06
x1.x3.vss.t528                    -7.19301e-07
x1.x3.vdd.t712                         1.80001
x1.x3.vdd.t711                             1.8
x1.x3.check[2].t2                  2.51552e-05
x1.x3.vss.t136                     -2.9962e-07
x1.x3.vss.t135                    -4.78271e-07
x1.x3.vdd.t337                         1.80002
x1.x3.vdd.t336                             1.8
x1.x3.vss.t45                      1.93169e-05
x1.x3.d[0].t3                          1.80001
x1.x3.vss.t44                      -4.3149e-06
x1.x3.vdd.t325                             1.8
x1.x3.x4.x.t35                         1.80008
x1.x3.vdd.t324                             1.8
x1.x3.vss.t592                    -6.10273e-07
x1.x3.vss.t484                    -1.43269e-06
x1.x3.x4.x.t15                         1.80007
x1.x3.vss.t483                    -7.06257e-07
x1.x3.vdd.t3                               1.8
x1.x3.vdd.t2                               1.8
x1.x3.vdd.t533                             1.8
x1.x3.vdd.t257                             1.8
x1.x3.vdd.t259                             1.8
x1.x3.vdd.t258                             1.8
x1.x3.vdd.t107                         1.80002
x1.x3.vdd.t106                             1.8
x1.x3.vss.t541                     -2.4932e-07
x1.x3.x20.q_n                      0.000322777
x1.x3.vss.t540                    -7.60482e-07
x1.x3.d[2].t0                          1.80012
x1.x3.vss.t580                     1.41049e-05
x1.x3.vss.t579                    -3.05068e-06
x1.x3.vss.t28                     -4.17087e-07
x1.x3.vdd.t200                             1.8
x1.x3.vdd.t694                         1.80001
x1.x3.vdd.t693                             1.8
x1.x3.vdd.t349                             1.8
x1.x3.vdd.t348                             1.8
x1.x3.vss.t91                     -5.29194e-06
x1.x3.vss.t609                     2.60871e-06
x1.x3.x5.x.t1                      3.59312e-05
x1.x3.vss.t608                     1.80309e-06
x1.x3.check[2].t3                  2.87477e-05
x1.x3.vdd.t129                             1.8
x1.x3.vdd.t128                             1.8
x1.x3.vss.t138                    -1.18005e-06
x1.x3.vdd.t331                         1.80001
x1.x3.vdd.t330                             1.8
x1.x3.vss.t598                     -8.3845e-07
x1.x3.comparator_out.t0                1.80012
x1.x3.vss.t353                     1.01343e-05
x1.x3.vss.t352                    -5.55624e-06
x1.x3.x4.x.t31                         1.80007
x1.x3.vdd.t511                             1.8
x1.x3.vdd.t510                             1.8
x1.x3.vss.t643                    -8.34417e-07
x1.x3.vss.t662                    -6.43265e-06
x1.x3.vss.t178                     2.13123e-05
x1.x3.vss.t177                    -8.51182e-06
x1.x3.vdd.t256                             1.8
x1.x3.vdd.t254                             1.8
x1.x3.vdd.t255                             1.8
x1.x3.vss.t549                    -4.50139e-07
x1.x3.vss.t548                    -3.49229e-07
x1.x3.vdd.t164                             1.8
x1.x3.vdd.t447                         1.80001
x1.x3.check[1].t2                  5.07018e-05
x1.x3.vdd.t446                             1.8
x1.x3.vss.t407                    -2.77462e-06
x1.x3.vdd.t576                             1.8
x1.x3.vdd.t575                             1.8
x1.x3.vss.t397                    -2.06726e-06
x1.x3.vdd.t322                         1.80002
x1.x3.vdd.t321                             1.8
x1.x3.vss.t210                    -2.83793e-06
x1.x3.vss.t261                    -1.41671e-07
x1.x3.x36.q_n                       0.00023989
x1.x3.vss.t260                    -6.55041e-07
x1.x3.vss.t314                     1.47353e-05
x1.x3.vss.t313                    -1.25407e-06
x1.x3.x4.a                             1.80001
x1.x3.vss.t286                     4.95006e-05
x1.x3.vss.t285                     4.20978e-07
x1.x3.vdd.t251                             1.8
x1.x3.vdd.t253                             1.8
x1.x3.vdd.t252                             1.8
x1.x3.vdd.t392                             1.8
x1.x3.vdd.t519                         1.80002
x1.x3.vdd.t518                             1.8
x1.x3.vdd.t366                             1.8
x1.x3.vdd.t365                             1.8
x1.x3.vdd.t386                             1.8
x1.x3.vdd.t385                             1.8
x1.x3.vss.t343                     4.34412e-05
x1.x3.vss.t342                    -8.21433e-06
x1.x3.x4.x.t30                         1.80007
x1.x3.vdd.t509                             1.8
x1.x3.vdd.t508                             1.8
x1.x3.vdd.t360                         1.80001
x1.x3.vdd.t359                             1.8
x1.x3.vss.t412                    -2.41633e-07
x1.x3.check[0].t2                   0.00013949
x1.x3.vss.t411                     3.52932e-07
x1.x3.vss.t189                     2.65369e-06
x1.x3.vss.t304                     4.69327e-05
x1.x3.x4.x.t36                         1.80008
x1.x3.vss.t303                    -7.14513e-06
x1.x3.vss.t68                      4.33793e-07
x1.x3.vss.t70                     -5.69412e-08
x1.x3.vss.t69                      8.29679e-07
x1.x3.vdd.t570                         1.80001
x1.x3.vdd.t569                             1.8
x1.x3.vss.t133                    -2.56646e-08
x1.x3.check[1].t3                  5.12146e-05
x1.x3.vss.t132                     1.85405e-08
x1.x3.vss.t244                    -1.08527e-06
x1.x3.vdd.t726                             1.8
x1.x3.vss.t243                     7.24328e-07
x1.x3.vss.t80                      1.93447e-05
x1.x3.x39.q_n                          1.80011
x1.x3.vss.t79                      9.63493e-07
x1.x3.vss.t597                    -4.93589e-06
x1.x3.x75.q_n                      9.06973e-05
x1.x3.vdd.t347                             1.8
x1.x3.vdd.t346                             1.8
x1.x3.vss.t7                       2.28686e-05
x1.x3.x5.x.t4                      4.38033e-05
x1.x3.vss.t6                      -6.74194e-07
x1.x3.vss.t507                     1.18284e-05
x1.x3.vss.t506                    -3.28604e-07
x1.x3.vss.t442                    -2.00098e-06
x1.x3.vdd.t162                             1.8
x1.x3.x63.q_n                      8.95033e-05
x1.x3.vdd.t161                             1.8
x1.x3.vdd.t78                              1.8
x1.x3.vdd.t335                             1.8
x1.x3.vdd.t523                             1.8
x1.x3.vdd.t686                             1.8
x1.x3.vdd.t685                             1.8
x1.x3.vss.t154                     6.59346e-06
x1.x3.vss.t153                    -3.51743e-07
x1.x3.check[3].t0                      1.80015
x1.x3.vss.t333                      1.5546e-05
x1.x3.vss.t332                    -4.07924e-06
x1.x3.vss.t310                     2.34705e-05
x1.x3.vss.t309                     -6.5683e-06
x1.x3.vss.t269                     -3.0506e-07
x1.x3.x4.x.t37                         1.80008
x1.x3.vss.t432                     9.29459e-06
x1.x3.vss.t431                    -1.27827e-06
x1.x3.vdd.t131                             1.8
x1.x3.vdd.t182                             1.8
x1.x3.vss.t242                     9.27394e-06
x1.x3.vdd.t727                             1.8
x1.x3.vss.t241                    -3.91746e-08
x1.x3.vss.t379                     5.33727e-07
x1.x3.vdd.t376                             1.8
x1.x3.comparator_out.t1                1.80013
x1.x3.vdd.t375                             1.8
x1.x3.check[6].t2                       1.8002
x1.x3.vss.t625                     1.02775e-05
x1.x3.vss.t624                    -4.41315e-06
x1.x3.vss.t369                    -2.61033e-06
x1.x3.vss.t240                    -1.02494e-06
x1.x3.vdd.t728                             1.8
x1.x3.vss.t239                     7.14345e-07
x1.x3.vdd.t455                             1.8
x1.x3.x4.x.t38                         1.80008
x1.x3.vdd.t454                             1.8
x1.x3.x33.q_n                      0.000244955
x1.x3.vss.t97                      4.37955e-05
x1.x3.vss.t96                     -8.46114e-06
x1.x3.vss.t519                     3.86756e-06
x1.x3.vss.t518                    -4.83395e-07
x1.x3.vss.t206                     2.02901e-07
x1.x3.vss.t420                      2.2909e-05
x1.x3.x5.x.t5                      4.37997e-05
x1.x3.vss.t419                    -6.79804e-07
x1.x3.d[1].t1                          1.80012
x1.x3.vdd.t459                             1.8
x1.x3.vdd.t458                             1.8
x1.x3.vdd.t538                             1.8
x1.x3.vss.t327                       1.825e-06
x1.x3.vdd.t636                             1.8
x1.x3.vdd.t434                             1.8
x1.x3.vdd.t400                             1.8
x1.x3.vdd.t399                             1.8
x1.x3.vss.t267                     3.09771e-05
x1.x3.vss.t266                    -1.59277e-05
x1.x3.vss.t378                    -3.02145e-07
x1.x3.vss.t312                    -5.79302e-07
x1.x3.vss.t268                    -3.44608e-06
x1.x3.vss.t202                     2.61669e-05
x1.x3.vss.t201                    -1.46235e-05
x1.x3.vss.t29                      -3.8751e-07
x1.x3.vdd.t120                         1.79999
x1.x3.x48.q                            1.79994
x1.x3.vdd.t119                             1.8
x1.x3.comparator_out.t2                1.80013
x1.x3.vdd.t116                             1.8
x1.x3.vdd.t115                             1.8
x1.x3.vdd.t152                         1.80001
x1.x3.vss.t674                    -2.36667e-07
x1.x3.vdd.t151                             1.8
x1.x3.x4.x.t29                         1.80007
x1.x3.vdd.t507                             1.8
x1.x3.vdd.t506                             1.8
x1.x3.vdd.t141                         1.80001
x1.x3.vdd.t140                             1.8
x1.x3.vss.t347                     2.15313e-06
x1.x3.vss.t346                     -5.5739e-07
x1.x3.x27.d                            1.79983
x1.x3.vss.t371                      9.7331e-06
x1.x3.vss.t370                    -4.73176e-06
x1.x3.vss.t494                    -2.62402e-06
x1.x3.vss.t539                     4.05946e-06
x1.x3.vss.t538                    -5.52845e-07
x1.x3.vss.t284                      4.8373e-05
x1.x3.vss.t283                    -1.21584e-06
x1.x3.vss.t168                     8.39781e-08
x1.x3.vss.t167                    -6.32322e-07
x1.x3.vdd.t633                             1.8
x1.x3.vdd.t188                             1.8
x1.x3.vdd.t187                             1.8
x1.x3.vdd.t280                             1.8
x1.x3.vdd.t384                             1.8
x1.x3.vdd.t383                             1.8
x1.x3.vss.t368                    -5.29027e-06
x1.x3.vdd.t329                             1.8
x1.x3.x51.q_n                      9.21972e-05
x1.x3.vdd.t328                             1.8
x1.x3.vdd.t199                             1.8
x1.x3.vss.t46                     -5.11786e-07
x1.x3.vdd.t58                              1.8
x1.x3.vdd.t57                              1.8
x1.x3.vss.t527                      9.7128e-06
x1.x3.vss.t526                    -2.50737e-06
x1.x3.vss.t146                    -3.17853e-07
x1.x3.vdd.t194                         1.79998
x1.x3.vdd.t193                             1.8
x1.x3.vdd.t289                             1.8
x1.x3.d[3].t2                          1.80008
x1.x3.vdd.t619                         1.80002
x1.x3.vdd.t618                             1.8
x1.x3.vdd.t49                              1.8
x1.x3.reset.t0                         1.80013
x1.x3.vdd.t48                              1.8
x1.x3.vss.t185                    -8.67337e-07
x1.x3.vss.t184                    -2.79142e-07
x1.x3.vdd.t118                             1.8
x1.x3.comparator_out.t3                1.80013
x1.x3.vdd.t117                             1.8
x1.x3.vdd.t358                         1.80001
x1.x3.vdd.t357                             1.8
x1.x3.vss.t67                      1.53861e-05
x1.x3.vss.t65                     -3.74492e-07
x1.x3.vss.t66                     -3.05883e-07
x1.x3.vdd.t168                         1.79999
x1.x3.vdd.t167                             1.8
x1.x3.vdd.t650                         1.80001
x1.x3.vdd.t649                             1.8
x1.x3.vdd.t114                             1.8
x1.x3.vdd.t391                             1.8
x1.x3.vss.t493                    -4.74034e-06
x1.x3.vss.t377                     2.51196e-05
x1.x3.x60.q_n                      8.96146e-05
x1.x3.vss.t376                    -5.96059e-06
x1.x3.vdd.t343                             1.8
x1.x3.vdd.t342                             1.8
x1.x3.vss.t25                      2.58361e-05
x1.x3.vss.t24                     -1.30535e-05
x1.x3.vdd.t248                             1.8
x1.x3.vdd.t250                             1.8
x1.x3.vdd.t249                             1.8
x1.x3.x42.q_n                          1.80011
x1.x3.vss.t574                     8.64442e-06
x1.x3.vss.t573                    -1.34808e-06
x1.x3.x5.x.t3                      4.51616e-05
x1.x3.vdd.t654                             1.8
x1.x3.vdd.t653                             1.8
x1.x3.check[5].t3                       1.8002
x1.x3.vdd.t305                             1.8
x1.x3.vdd.t304                             1.8
x1.x3.vdd.t1                           1.79998
x1.x3.vdd.t0                               1.8
x1.x3.vdd.t303                             1.8
x1.x3.vdd.t302                             1.8
x1.x3.x4.x.t14                         1.80007
x1.x3.vss.t482                    -1.25443e-06
x1.x3.vss.t481                    -2.18156e-07
x1.x3.vdd.t123                         1.79998
x1.x3.vdd.t122                             1.8
x1.x3.vss.t265                    -2.50978e-06
x1.x3.vss.t647                    -4.00413e-07
x1.x3.eob.t4                           1.80001
x1.x3.vss.t558                    -3.51748e-07
x1.x3.vss.t557                     1.59997e-06
x1.x3.vss.t568                    -8.22217e-07
x1.x3.vss.t567                    -2.91467e-07
x1.x3.eob.t8                           1.80001
x1.x3.vdd.t196                             1.8
x1.x3.vdd.t195                             1.8
x1.x3.d[3].t3                          1.80008
x1.x3.vss.t588                     2.01706e-05
x1.x3.vss.t587                    -2.28388e-06
x1.x3.vdd.t154                             1.8
x1.x3.vdd.t153                             1.8
x1.x3.vdd.t684                             1.8
x1.x3.vdd.t683                             1.8
x1.x3.vdd.t522                             1.8
x1.x3.vss.t43                     -2.52838e-06
x1.x3.x4.x.t39                         1.80008
x1.x3.vss.t502                     2.91031e-05
x1.x3.vss.t501                    -7.89249e-06
x1.x3.vdd.t716                             1.8
x1.x3.vdd.t39                              1.8
x1.x3.vdd.t439                             1.8
x1.x3.check[0].t3                  0.000141539
x1.x3.vdd.t438                             1.8
x1.x3.vdd.t463                         1.80002
x1.x3.vdd.t462                             1.8
x1.x3.vss.t87                     -3.26874e-06
x1.x3.vdd.t178                             1.8
x1.x3.x4.x.t28                         1.80007
x1.x3.vdd.t505                             1.8
x1.x3.vdd.t504                             1.8
x1.x3.vdd.t247                             1.8
x1.x3.vdd.t245                             1.8
x1.x3.vdd.t246                             1.8
x1.x3.vss.t594                    -3.98946e-07
x1.x3.vdd.t527                             1.8
x1.x3.x4.x.t40                         1.80008
x1.x3.vdd.t526                             1.8
x1.x3.vdd.t105                             1.8
x1.x3.vss.t152                      1.4237e-05
x1.x3.vss.t151                    -3.27208e-07
x1.x3.vdd.t264                             1.8
x1.x3.check[4].t1                      1.80018
x1.x3.vdd.t291                         1.80001
x1.x3.vdd.t290                         1.79999
x1.x3.vdd.t503                             1.8
x1.x3.x4.x.t27                         1.80007
x1.x3.vdd.t502                             1.8
x1.x3.vdd.t461                             1.8
x1.x3.vdd.t282                             1.8
x1.x3.vss.t422                     2.34451e-05
x1.x3.x5.x.t6                      4.38396e-05
x1.x3.vss.t421                    -6.33208e-07
x1.x3.vdd.t230                             1.8
x1.x3.vdd.t232                             1.8
x1.x3.vdd.t231                             1.8
x1.x3.d[5].t2                           1.8001
x1.x3.vdd.t676                         1.80002
x1.x3.vdd.t675                             1.8
x1.x3.vdd.t52                              1.8
x1.x3.vss.t444                     3.35908e-05
x1.x3.x4.x.t41                         1.80008
x1.x3.vss.t443                    -4.21133e-06
x1.x3.vss.t172                     2.82891e-05
x1.x3.reset.t1                         1.80012
x1.x3.vss.t171                    -6.47573e-06
x1.x3.vss.t673                    -1.19195e-06
x1.x3.vdd.t51                              1.8
x1.x3.vdd.t729                             1.8
x1.x3.vss.t238                     1.15402e-05
x1.x3.vss.t237                    -2.43545e-06
x1.x3.x4.x.t13                         1.80006
x1.x3.vss.t480                     2.52165e-05
x1.x3.vss.t479                     7.48617e-07
x1.x3.vdd.t201                             1.8
x1.x3.comparator_out.t4                1.80013
x1.x3.vdd.t451                             1.8
x1.x3.vdd.t450                             1.8
x1.x3.vss.t428                     9.90997e-06
x1.x3.comparator_out.t5                1.80012
x1.x3.vss.t427                    -4.51563e-06
x1.x3.vss.t23                     -2.23825e-06
x1.x3.vss.t440                     1.44704e-05
x1.x3.vss.t439                    -1.45943e-06
x1.x3.vdd.t288                         1.80001
x1.x3.vdd.t287                             1.8
x1.x3.vss.t406                    -4.34795e-06
x1.x3.vdd.t113                         1.79999
x1.x3.vdd.t112                             1.8
x1.x3.vss.t207                    -2.10166e-07
x1.x3.vss.t15                      -3.8319e-06
x1.x3.vdd.t124                             1.8
x1.x3.vss.t401                     1.92675e-06
x1.x3.vss.t400                    -7.17935e-07
x1.x3.vdd.t710                             1.8
x1.x3.vdd.t709                             1.8
x1.x3.vdd.t244                             1.8
x1.x3.vdd.t242                             1.8
x1.x3.vdd.t243                             1.8
x1.x3.vdd.t88                              1.8
x1.x3.vss.t591                    -5.33872e-06
x1.x3.vdd.t127                             1.8
x1.x3.x4.x.t12                         1.80006
x1.x3.vss.t478                    -1.24179e-06
x1.x3.vss.t477                    -4.81741e-07
x1.x3.vdd.t724                         1.80002
x1.x3.vdd.t723                             1.8
x1.x3.vss.t89                      3.06873e-05
x1.x3.vss.t88                     -2.33449e-07
x1.x3.d[5].t3                           1.8001
x1.x3.vss.t627                     2.03538e-05
x1.x3.vss.t626                    -2.30625e-06
x1.x3.vdd.t437                             1.8
x1.x3.vss.t675                     2.98219e-06
x1.x3.vdd.t284                         1.79999
x1.x3.vdd.t283                             1.8
x1.x3.vss.t655                    -6.60461e-06
x1.x3.vdd.t617                             1.8
x1.x3.vdd.t616                             1.8
x1.x3.vss.t532                    -2.10859e-06
x1.x3.vss.t508                    -1.02504e-06
x1.x3.vdd.t171                             1.8
x1.x3.vss.t31                     -2.08913e-06
x1.x3.vdd.t532                             1.8
x1.x3.vdd.t531                             1.8
x1.x3.vss.t58                       3.1165e-05
x1.x3.check[0].t4                  0.000140037
x1.x3.vss.t57                     -3.05392e-07
x1.x3.vss.t200                     1.12673e-05
x1.x3.vss.t199                    -1.07117e-06
x1.x3.vss.t253                     5.32794e-06
x1.x3.check[1].t1                   4.9311e-05
x1.x3.vss.t252                     1.61714e-06
x1.x3.x5.a                         0.000272086
x1.x3.vdd.t21                              1.8
x1.x3.vdd.t20                              1.8
x1.x3.vdd.t60                          1.79999
x1.x3.check[0].t5                  0.000146729
x1.x3.vdd.t59                              1.8
x1.x3.vdd.t730                             1.8
x1.x3.vss.t236                     1.15891e-05
x1.x3.vss.t235                     -2.4036e-06
x1.x3.vss.t52                       2.5094e-05
x1.x3.x57.q_n                      8.93772e-05
x1.x3.vss.t51                     -5.96865e-06
x1.x3.vdd.t432                             1.8
x1.x3.vdd.t566                             1.8
x1.x3.d[4].t1                           1.8001
x1.x3.vdd.t565                             1.8
x1.x3.vss.t125                     9.91795e-06
x1.x3.comparator_out.t6                1.80012
x1.x3.vss.t124                    -4.52276e-06
x1.x3.vdd.t146                         1.80001
x1.x3.vdd.t145                             1.8
x1.x3.vdd.t177                             1.8
x1.x3.vdd.t176                             1.8
x1.x3.vdd.t705                             1.8
x1.x3.vdd.t631                             1.8
x1.x3.vss.t30                     -8.05075e-07
x1.x3.check[6].t3                       1.8002
x1.x3.vdd.t674                             1.8
x1.x3.vdd.t673                             1.8
x1.x3.x5.x.t7                      4.39392e-05
x1.x3.vss.t590                     2.10639e-05
x1.x3.vss.t589                    -4.25938e-07
x1.x3.vss.t446                     4.66478e-05
x1.x3.x4.x.t42                         1.80008
x1.x3.vss.t445                    -7.14572e-06
x1.x3.vss.t395                     7.01453e-06
x1.x3.vss.t394                    -4.42333e-07
x1.x3.vss.t166                     2.27505e-05
x1.x3.vss.t165                    -6.43926e-06
x1.x3.vss.t60                      3.94253e-05
x1.x3.sel_bit[1].t0                        1.8
x1.x3.vss.t59                     -2.56247e-06
x1.x3.vdd.t175                             1.8
x1.x3.vdd.t174                             1.8
x1.x3.vdd.t658                             1.8
x1.x3.sel_bit[1].t1                        1.8
x1.x3.vdd.t657                             1.8
x1.x3.check[6].t1                      1.80019
x1.x3.vdd.t97                          1.80001
x1.x3.vdd.t96                          1.79999
x1.x3.vdd.t101                         1.80001
x1.x3.vdd.t100                             1.8
x1.x3.vss.t292                     1.74365e-05
x1.x3.vss.t291                    -1.39139e-06
x1.x3.vss.t490                    -3.11068e-07
x1.x3.vdd.t608                             1.8
x1.x3.vss.t672                     1.51708e-05
x1.x3.vss.t671                    -1.50948e-06
x1.x3.vss.t295                    -1.06232e-06
x1.x3.vss.t188                     1.58323e-05
x1.x3.check[0].t0                  0.000133764
x1.x3.vss.t187                    -1.47677e-06
x1.x3.vss.t17                     -2.70474e-06
x1.x3.vss.t661                     2.53051e-05
x1.x3.x54.q_n                      9.04915e-05
x1.x3.vss.t660                    -6.02454e-06
x1.x3.eob.t2                           1.80002
x1.x3.vdd.t583                             1.8
x1.x3.vdd.t582                             1.8
x1.x3.vdd.t621                         1.80001
x1.x3.x5.x.t8                      4.42464e-05
x1.x3.vdd.t620                             1.8
x1.x3.vdd.t378                             1.8
x1.x3.d[5].t1                           1.8001
x1.x3.vdd.t377                             1.8
x1.x3.vdd.t546                         1.80001
x1.x3.vdd.t545                             1.8
x1.x3.vss.t619                    -1.29382e-06
x1.x3.vdd.t420                         1.79999
x1.x3.vdd.t419                             1.8
x1.x3.vdd.t15                          1.80002
x1.x3.vdd.t14                              1.8
x1.x3.vdd.t601                             1.8
x1.x3.vdd.t600                             1.8
x1.x3.vss.t183                     4.17512e-06
x1.x3.vss.t182                     7.72705e-07
x1.x3.x4.x.t43                         1.80008
x1.x3.vss.t424                     3.11653e-05
x1.x3.vss.t423                    -4.19776e-06
x1.x3.vdd.t394                             1.8
x1.x3.vdd.t393                             1.8
x1.x3.vss.t320                     3.74781e-06
x1.x3.vss.t319                    -9.80233e-07
x1.x3.vss.t615                      2.3879e-05
x1.x3.vss.t614                     -1.1733e-05
x1.x3.vdd.t599                             1.8
x1.x3.vdd.t598                             1.8
x1.x3.vss.t564                     1.53848e-05
x1.x3.d[7].t0                           1.7998
x1.x3.vss.t563                    -1.54334e-06
x1.x3.vss.t618                    -3.68452e-06
x1.x3.vdd.t104                             1.8
x1.x3.vdd.t241                             1.8
x1.x3.vdd.t239                             1.8
x1.x3.vdd.t240                             1.8
x1.x3.x5.x.t9                       4.3754e-05
x1.x3.vdd.t67                          1.80002
x1.x3.vdd.t66                              1.8
x1.x3.vdd.t424                         1.80001
x1.x3.vdd.t423                             1.8
x1.x3.vdd.t632                             1.8
x1.x3.x4.x.t44                         1.80008
x1.x3.vdd.t443                             1.8
x1.x3.vdd.t442                             1.8
x1.x3.vss.t641                     5.09432e-07
x1.x3.vss.t640                    -9.49077e-07
x1.x3.vdd.t554                             1.8
x1.x3.vdd.t553                             1.8
x1.x3.vss.t651                     1.42212e-05
x1.x3.vss.t650                    -3.25615e-07
x1.x3.vdd.t160                         1.80001
x1.x3.vdd.t159                             1.8
x1.x3.x4.x.t26                         1.80007
x1.x3.vdd.t501                             1.8
x1.x3.vdd.t500                             1.8
x1.x3.vdd.t460                             1.8
x1.x3.vss.t396                    -7.93235e-07
x1.x3.vss.t209                    -6.88654e-06
x1.x3.vss.t489                    -2.80258e-06
x1.x3.vdd.t372                             1.8
x1.x3.vss.t16                     -1.52594e-06
x1.x3.vss.t114                    -2.60824e-06
x1.x3.vss.t81                     -4.52816e-07
x1.x3.x4.x.t11                         1.80006
x1.x3.vss.t476                    -1.24088e-06
x1.x3.vss.t475                    -6.73891e-07
x1.x3.vdd.t644                             1.8
x1.x3.x4.x.t45                         1.80008
x1.x3.vdd.t643                             1.8
x1.x3.x4.x.t46                         1.80008
x1.x3.vdd.t646                         1.80002
x1.x3.vdd.t645                             1.8
x1.x3.vss.t98                     -2.35149e-06
x1.x3.vss.t566                     1.27287e-05
x1.x3.vss.t565                     9.29601e-07
x1.x3.vdd.t664                         1.80001
x1.x3.vdd.t663                             1.8
x1.x3.x4.x.t47                         1.80008
x1.x3.vss.t531                     3.13916e-05
x1.x3.vss.t530                    -4.22683e-06
x1.x3.vdd.t17                              1.8
x1.x3.vss.t345                     1.01248e-05
x1.x3.vss.t344                    -1.65471e-06
x1.x3.vss.t433                    -2.32924e-07
x1.x3.vss.t450                    -3.78091e-06
x1.x3.vdd.t173                         1.80002
x1.x3.vdd.t172                             1.8
x1.x3.vss.t14                       1.4693e-05
x1.x3.vss.t13                     -1.51764e-06
x1.x3.vss.t108                    -1.59904e-06
x1.x3.vdd.t238                             1.8
x1.x3.vdd.t236                             1.8
x1.x3.vdd.t237                             1.8
x1.x3.vss.t363                     -8.5456e-07
x1.x3.vss.t362                    -5.85024e-07
x1.x3.vss.t11                      1.43394e-05
x1.x3.vss.t10                     -3.28765e-07
x1.x3.vss.t21                      2.74104e-05
x1.x3.vss.t20                     -1.44559e-05
x1.x3.x4.x.t10                         1.80007
x1.x3.vss.t474                    -1.32194e-06
x1.x3.vss.t473                    -5.17857e-07
x1.x3.vss.t441                    -4.81372e-06
x1.x3.vdd.t274                         1.80001
x1.x3.vdd.t273                             1.8
x1.x3.vss.t113                    -1.30194e-06
x1.x3.vss.t513                    -4.54685e-07
x1.x3.vdd.t301                             1.8
x1.x3.vdd.t300                             1.8
x1.x3.x4.x.t48                         1.80008
x1.x3.vdd.t556                             1.8
x1.x3.vdd.t555                             1.8
x1.x3.vss.t364                    -2.44366e-06
x1.x3.vss.t41                      2.27656e-05
x1.x3.vss.t40                     -6.81634e-06
x1.x3.vdd.t564                             1.8
x1.x3.vdd.t563                             1.8
x1.x3.vdd.t327                         1.79998
x1.x3.vdd.t326                             1.8
x1.x3.vss.t486                    -2.76486e-06
x1.x3.vss.t112                     2.91102e-05
x1.x3.vss.t111                    -7.88801e-06
x1.x3.vdd.t109                             1.8
x1.x3.vss.t326                     2.56206e-05
x1.x3.vss.t325                     -6.9034e-06
x1.x3.vdd.t471                         1.80002
x1.x3.vdd.t470                             1.8
x1.x3.vss.t170                    -1.65851e-06
x1.x3.vss.t120                    -2.23407e-07
x1.x3.vdd.t731                             1.8
x1.x3.vss.t234                     1.64691e-05
x1.x3.vss.t233                    -2.47317e-06
x1.x3.vss.t294                     1.03175e-05
x1.x3.check[3].t2                      1.80015
x1.x3.vss.t293                    -3.12907e-06
x1.x3.vss.t485                    -6.68067e-06
x1.x3.comparator_out.t7                1.80012
x1.x3.vss.t127                     1.00159e-05
x1.x3.vss.t126                    -5.37208e-06
x1.x3.vss.t64                      2.09169e-06
x1.x3.vss.t63                      -7.3356e-07
x1.x3.vdd.t722                             1.8
x1.x3.vdd.t605                             1.8
x1.x3.vdd.t604                             1.8
x1.x3.vdd.t537                         1.80002
x1.x3.vdd.t536                             1.8
x1.x3.vss.t500                     -5.1521e-06
x1.x3.vss.t560                    -6.12514e-07
x1.x3.x66.q_n                      9.39218e-05
x1.x3.vdd.t615                             1.8
x1.x3.vdd.t614                             1.8
x1.x3.vdd.t286                             1.8
x1.x3.vdd.t285                             1.8
x1.x3.vdd.t589                             1.8
x1.x3.x5.x.t10                     4.34946e-05
x1.x3.vdd.t69                          1.80002
x1.x3.vdd.t68                              1.8
x1.x3.vss.t488                     3.08032e-05
x1.x3.vss.t487                    -8.98927e-06
x1.x3.vdd.t111                         1.79998
x1.x3.vdd.t110                             1.8
x1.x3.vdd.t341                             1.8
x1.x3.vdd.t340                             1.8
x1.x3.d[1].t0                          1.80012
x1.x3.vss.t436                      1.4846e-05
x1.x3.vss.t435                    -2.96605e-06
x1.x3.vdd.t433                             1.8
x1.x3.vdd.t281                             1.8
x1.x3.vss.t33                     -3.99473e-07
x1.x3.x4.x.t49                         1.80008
x1.x3.vss.t426                     3.16806e-05
x1.x3.vss.t425                    -1.27531e-05
x1.x3.vdd.t50                              1.8
x1.x3.d[0].t0                          1.80001
x1.x3.vdd.t670                             1.8
x1.x3.vdd.t669                             1.8
x1.x3.vdd.t390                         1.80002
x1.x3.vdd.t389                             1.8
x1.x3.vss.t259                      3.7555e-06
x1.x3.vss.t258                    -4.69821e-07
x1.x3.vss.t499                    -6.11562e-07
x1.x3.vdd.t479                             1.8
x1.x3.vdd.t478                             1.8
x1.x3.vss.t119                     1.66531e-05
x1.x3.vss.t118                    -3.21843e-06
x1.x3.vdd.t525                             1.8
x1.x3.x4.x.t9                          1.80006
x1.x3.vss.t472                    -1.24316e-06
x1.x3.vss.t471                    -7.73885e-07
x1.x3.vss.t232                     5.85523e-05
x1.x3.vdd.t732                         1.79999
x1.x3.vss.t231                    -7.35716e-06
x1.x3.vdd.t418                         1.79999
x1.x3.vdd.t417                             1.8
x1.x3.vdd.t641                         1.80002
x1.x3.vdd.t640                             1.8
x1.x3.vdd.t126                             1.8
x1.x3.d[6].t1                          1.80008
x1.x3.vdd.t125                             1.8
x1.x3.vss.t95                      2.43668e-05
x1.x3.vss.t94                     -1.24597e-05
x1.x3.x4.x.t50                         1.80008
x1.x3.vdd.t449                             1.8
x1.x3.vdd.t448                             1.8
x1.x3.vdd.t311                         1.79999
x1.x3.vdd.t310                             1.8
x1.x3.vdd.t309                             1.8
x1.x3.vdd.t308                             1.8
x1.x3.vdd.t678                             1.8
x1.x3.comparator_out.t8                1.80013
x1.x3.vdd.t677                             1.8
x1.x3.vss.t556                    -3.20508e-07
x1.x3.eob.t7                           1.80001
x1.x3.vss.t555                     1.53748e-06
x1.x3.vdd.t467                         1.80001
x1.x3.vdd.t466                             1.8
x1.x3.vss.t361                     2.00616e-05
x1.x3.vss.t360                    -8.51113e-07
x1.x3.vss.t637                     4.39107e-05
x1.x3.vss.t636                     -8.3669e-06
x1.x3.vss.t302                     2.57973e-06
x1.x3.vdd.t299                             1.8
x1.x3.vdd.t298                             1.8
x1.x3.vdd.t233                             1.8
x1.x3.vdd.t235                             1.8
x1.x3.vdd.t234                             1.8
x1.x3.check[4].t2                      1.80018
x1.x3.vss.t391                     1.02586e-05
x1.x3.vss.t390                    -4.35681e-06
x1.x3.vdd.t99                              1.8
x1.x3.vdd.t98                              1.8
x1.x3.vss.t545                    -1.64638e-06
x1.x3.vdd.t94                          1.80001
x1.x3.vdd.t93                              1.8
x1.x3.vdd.t227                             1.8
x1.x3.vdd.t229                             1.8
x1.x3.vdd.t228                             1.8
x1.x3.vdd.t692                         1.80002
x1.x3.vdd.t691                             1.8
x1.x3.vss.t639                    -1.24217e-07
x1.x3.vss.t638                    -1.55615e-06
x1.x3.vss.t290                     2.54456e-05
x1.x3.vss.t289                    -9.42254e-06
x1.x3.vss.t39                      3.27412e-06
x1.x3.vss.t38                      -5.7833e-07
x1.x3.vdd.t25                              1.8
x1.x3.d[4].t2                           1.8001
x1.x3.vdd.t412                         1.80002
x1.x3.vdd.t411                             1.8
x1.x3.vdd.t192                             1.8
x1.x3.vdd.t191                             1.8
x1.x3.vss.t649                     6.55874e-06
x1.x3.vss.t648                    -3.46348e-07
x1.x3.vss.t331                     -3.8186e-06
x1.x3.check[4].t0                      1.80018
x1.x3.vss.t274                     1.58225e-05
x1.x3.vss.t273                    -4.63725e-06
x1.x3.vdd.t499                             1.8
x1.x3.x4.x.t25                         1.80007
x1.x3.vdd.t498                             1.8
x1.x3.vdd.t144                         1.80001
x1.x3.vdd.t143                             1.8
x1.x3.vss.t230                     9.45928e-06
x1.x3.vdd.t733                             1.8
x1.x3.vss.t229                     3.51537e-09
x1.x3.vdd.t630                             1.8
x1.x3.vss.t90                     -5.58343e-07
x1.x3.vdd.t680                             1.8
x1.x3.comparator_out.t9                1.80013
x1.x3.vdd.t679                             1.8
x1.x3.vss.t12                     -1.16253e-06
x1.x3.vdd.t530                             1.8
x1.x3.vdd.t529                             1.8
x1.x3.vdd.t382                             1.8
x1.x3.vdd.t381                             1.8
x1.x3.vss.t145                    -6.60036e-06
x1.x3.vss.t282                     2.39643e-05
x1.x3.vss.t281                    -3.75974e-06
x1.x3.vss.t228                      1.6611e-05
x1.x3.vdd.t734                             1.8
x1.x3.vss.t227                    -2.67945e-06
x1.x3.vdd.t422                         1.80002
x1.x3.vdd.t421                             1.8
x1.x3.vss.t122                     1.66632e-05
x1.x3.vss.t121                    -2.22616e-06
x1.x3.vdd.t370                             1.8
x1.x3.vdd.t369                             1.8
x1.x3.eob.t9                           1.80001
x1.x3.vss.t498                     2.77498e-05
x1.x3.vss.t497                    -1.57294e-06
x1.x3.vdd.t607                         1.80002
x1.x3.vdd.t606                             1.8
x1.x3.vdd.t83                              1.8
x1.x3.sel_bit[1].t2                    1.79999
x1.x3.vss.t147                    -6.04163e-07
x1.x3.vdd.t307                             1.8
x1.x3.x48.q_n                       9.9987e-05
x1.x3.vdd.t306                             1.8
x1.x3.vss.t349                    -2.21295e-06
x1.x3.d[4].t3                           1.8001
x1.x3.vss.t387                     1.98159e-05
x1.x3.vss.t386                    -2.23196e-06
x1.x3.x4.x.t8                          1.80006
x1.x3.vss.t470                    -1.17307e-06
x1.x3.vss.t469                    -4.14411e-07
x1.x3.vss.t330                    -1.15876e-06
x1.x3.vss.t584                     3.24603e-06
x1.x3.vss.t583                    -9.91478e-07
x1.x3.vss.t311                    -4.64942e-06
x1.x3.x69.q_n                      9.41082e-05
x1.x3.vdd.t47                              1.8
x1.x3.vdd.t46                              1.8
x1.x3.eob.t10                          1.80001
x1.x3.vss.t496                     8.18329e-06
x1.x3.vss.t495                    -3.13531e-06
x1.x3.vss.t196                     1.17252e-05
x1.x3.vss.t195                    -3.80442e-07
x1.x3.vdd.t453                         1.80002
x1.x3.x5.x.t11                     4.33822e-05
x1.x3.vdd.t452                             1.8
x1.x3.vdd.t662                             1.8
x1.x3.vdd.t661                             1.8
x1.x3.vdd.t103                             1.8
x1.x3.vdd.t652                             1.8
x1.x3.x5.x.t2                      4.51612e-05
x1.x3.vdd.t651                             1.8
x1.x3.vss.t62                      9.97891e-06
x1.x3.vss.t61                     -2.55845e-06
x1.x3.sel_bit[0].t0                        1.8
x1.x3.vss.t622                     8.25205e-08
x1.x3.vss.t250                     1.48634e-05
x1.x3.d[3].t1                          1.80008
x1.x3.vss.t249                     -2.3926e-06
x1.x3.vdd.t313                             1.8
x1.x3.check[3].t3                      1.80015
x1.x3.vdd.t312                             1.8
x1.x3.vdd.t297                             1.8
x1.x3.vdd.t296                             1.8
x1.x3.vss.t468                    -1.31943e-06
x1.x3.x4.x.t7                          1.80007
x1.x3.vss.t467                    -2.72756e-07
x1.x3.vdd.t577                             1.8
x1.x3.vss.t93                      1.73489e-05
x1.x3.vss.t92                     -1.37634e-06
x1.x3.vss.t554                    -3.13906e-07
x1.x3.eob.t5                           1.80001
x1.x3.vss.t553                     1.45786e-06
x1.x3.vdd.t552                             1.8
x1.x3.vdd.t551                             1.8
x1.x3.vss.t1                      -4.17156e-07
x1.x3.vdd.t35                              1.8
x1.x3.x4.x.t51                         1.80008
x1.x3.vdd.t34                              1.8
x1.x3.vdd.t521                         1.80001
x1.x3.vdd.t520                             1.8
x1.x3.vss.t226                    -1.33327e-06
x1.x3.vdd.t735                             1.8
x1.x3.vss.t225                     4.04225e-07
x1.x3.vss.t664                     -5.0166e-07
x1.x3.check[5].t1                       1.8002
x1.x3.vdd.t591                         1.80001
x1.x3.vdd.t590                         1.79999
x1.x3.vdd.t28                              1.8
x1.x3.vdd.t544                         1.80001
x1.x3.vdd.t543                             1.8
x1.x3.vdd.t163                             1.8
x1.x3.vdd.t334                             1.8
x1.x3.check[6].t0                       1.8002
x1.x3.vss.t100                     1.58989e-05
x1.x3.vss.t99                     -4.81229e-06
x1.x3.vdd.t574                         1.79999
x1.x3.vdd.t573                             1.8
x1.x3.vss.t572                     3.80459e-06
x1.x3.vss.t571                    -2.89405e-07
x1.x3.vss.t22                     -3.18591e-06
x1.x3.vss.t535                    -2.71716e-06
x1.x3.vss.t517                     4.28324e-06
x1.x3.vss.t516                    -2.16037e-06
x1.x3.vdd.t33                          1.80001
x1.x3.vdd.t32                              1.8
x1.x3.vdd.t497                             1.8
x1.x3.x4.x.t24                         1.80007
x1.x3.vdd.t496                             1.8
x1.x3.vdd.t181                             1.8
x1.x3.vss.t85                      9.00029e-06
x1.x3.vss.t84                     -1.35822e-06
x1.x3.vdd.t572                             1.8
x1.x3.vdd.t108                             1.8
x1.x3.vdd.t698                             1.8
x1.x3.vdd.t260                             1.8
x1.x3.vss.t176                     6.92815e-06
x1.x3.vss.t175                    -7.83623e-07
x1.x3.vdd.t190                             1.8
x1.x3.vdd.t189                         1.79999
x1.x3.vss.t264                    -5.18452e-06
x1.x3.vss.t613                     1.73111e-05
x1.x3.vss.t612                    -1.28984e-06
x1.x3.vdd.t495                             1.8
x1.x3.x4.x.t23                         1.80007
x1.x3.vdd.t494                             1.8
x1.x3.vdd.t568                         1.80001
x1.x3.vdd.t567                             1.8
x1.x3.vdd.t24                              1.8
x1.x3.x4.x.t52                         1.80008
x1.x3.vdd.t37                              1.8
x1.x3.vdd.t36                              1.8
x1.x3.vdd.t158                             1.8
x1.x3.vdd.t157                             1.8
x1.x3.vss.t9                       6.63275e-06
x1.x3.vss.t8                      -3.54839e-07
x1.x3.vdd.t95                              1.8
x1.x3.vdd.t713                             1.8
x1.x3.comparator_out.t10               1.80013
x1.x3.vdd.t184                             1.8
x1.x3.vdd.t183                             1.8
x1.x3.vss.t190                    -3.30923e-06
x1.x3.vdd.t374                             1.8
x1.x3.x3.a                             1.80005
x1.x3.vdd.t373                             1.8
x1.x3.vdd.t226                             1.8
x1.x3.vdd.t224                             1.8
x1.x3.vdd.t225                             1.8
x1.x3.vss.t107                    -4.02154e-07
x1.x3.vdd.t270                         1.80002
x1.x3.vdd.t269                             1.8
x1.x3.vdd.t690                         1.79999
x1.x3.vdd.t689                             1.8
x1.x3.vdd.t517                             1.8
x1.x3.vdd.t350                             1.8
x1.x3.vdd.t272                         1.80001
x1.x3.vdd.t271                             1.8
x1.x3.vdd.t13                              1.8
x1.x3.d[6].t2                          1.80008
x1.x3.vdd.t41                          1.80002
x1.x3.vdd.t40                              1.8
x1.x3.vss.t430                     1.90758e-05
x1.x3.x5.x.t12                      4.3982e-05
x1.x3.vss.t429                    -3.63519e-07
x1.x3.vss.t669                     7.02221e-06
x1.x3.vss.t668                     -3.7769e-07
x1.x3.vdd.t387                             1.8
x1.x3.vdd.t736                             1.8
x1.x3.vss.t224                     1.64774e-05
x1.x3.vss.t223                     -2.5396e-06
x1.x3.vss.t670                    -3.88216e-06
x1.x3.vss.t297                     3.17618e-05
x1.x3.x4.x.t53                         1.80008
x1.x3.vss.t296                    -3.98245e-06
x1.x3.vss.t452                    -6.84323e-06
x1.x3.vdd.t737                             1.8
x1.x3.vss.t222                     1.15362e-05
x1.x3.vss.t221                    -2.43682e-06
x1.x3.vss.t434                    -2.34106e-06
x1.x3.x4.x.t54                         1.80008
x1.x3.vdd.t316                             1.8
x1.x3.vdd.t315                             1.8
x1.x3.vss.t192                     9.90968e-06
x1.x3.comparator_out.t11               1.80012
x1.x3.vss.t191                    -4.52403e-06
x1.x3.vdd.t11                          1.80001
x1.x3.vdd.t10                              1.8
x1.x3.vdd.t635                         1.80002
x1.x3.vdd.t634                             1.8
x1.x3.vss.t78                     -1.04112e-06
x1.x3.vss.t77                     -2.00647e-07
x1.x3.vdd.t560                         1.80002
x1.x3.vdd.t559                             1.8
x1.x3.vdd.t404                         1.79999
x1.x3.vdd.t403                             1.8
x1.x3.vss.t257                     1.41088e-05
x1.x3.vss.t256                    -9.91189e-07
x1.x3.vss.t158                    -1.60874e-07
x1.x3.vss.t157                    -6.73728e-07
x1.x3.vdd.t603                             1.8
x1.x3.vdd.t602                             1.8
x1.x3.vdd.t493                             1.8
x1.x3.x4.x.t22                         1.80007
x1.x3.vdd.t492                             1.8
x1.x3.vss.t164                     2.50739e-05
x1.x3.vss.t163                    -5.95999e-06
x1.x3.x4.x.t6                          1.80007
x1.x3.vss.t466                     -1.4495e-06
x1.x3.vss.t465                    -1.69478e-06
x1.x3.vdd.t29                              1.8
x1.x3.vdd.t86                              1.8
x1.x3.vdd.t85                              1.8
x1.x3.vss.t559                    -5.35933e-06
x1.x3.check[4].t3                      1.80018
x1.x3.vdd.t416                             1.8
x1.x3.vdd.t415                             1.8
x1.x3.x5.x.t13                     4.37203e-05
x1.x3.vdd.t71                          1.80002
x1.x3.vdd.t70                              1.8
x1.x3.vss.t248                    -3.93641e-07
x1.x3.d[6].t3                          1.80008
x1.x3.vss.t35                      2.08203e-05
x1.x3.vss.t34                     -2.37639e-06
x1.x3.vdd.t65                              1.8
x1.x3.vdd.t64                              1.8
x1.x3.vdd.t121                             1.8
x1.x3.vss.t271                    -2.34943e-06
x1.x3.vss.t272                    -6.60542e-06
x1.x3.vss.t194                     1.64176e-05
x1.x3.vss.t193                     -3.7075e-07
x1.x3.vdd.t469                             1.8
x1.x3.vss.t156                     3.84189e-06
x1.x3.vss.t155                    -4.85134e-07
x1.x3.vdd.t45                              1.8
x1.x3.vdd.t44                              1.8
x1.x3.vdd.t491                             1.8
x1.x3.x4.x.t21                         1.80007
x1.x3.vdd.t490                             1.8
x1.x3.vdd.t139                         1.79999
x1.x3.vdd.t138                             1.8
x1.x3.vss.t181                     2.11113e-05
x1.x3.vss.t180                     9.85695e-07
x1.x3.vdd.t398                             1.8
x1.x3.vdd.t397                             1.8
x1.x3.vss.t301                    -2.08565e-06
x1.x3.vss.t596                     1.56036e-05
x1.x3.vss.t595                    -1.07479e-06
x1.x3.vdd.t688                             1.8
x1.x3.vdd.t687                             1.8
x1.x3.vss.t449                    -2.12563e-07
x1.x3.vss.t603                    -1.54842e-07
x1.x3.vss.t602                    -6.64839e-07
x1.x3.vdd.t268                             1.8
x1.x3.vdd.t43                              1.8
x1.x3.vdd.t42                              1.8
x1.x3.vdd.t380                             1.8
x1.x3.vdd.t379                             1.8
x1.x3.vss.t54                      3.33216e-05
x1.x3.x4.x.t55                         1.80008
x1.x3.vss.t53                     -5.12464e-06
x1.x3.vss.t148                    -2.30636e-06
x1.x3.vdd.t702                         1.80001
x1.x3.vdd.t701                             1.8
x1.x3.vss.t348                    -6.64365e-07
x1.x3.vss.t280                     3.02045e-05
x1.x3.vss.t279                    -8.76703e-07
x1.x3.vss.t300                    -8.01729e-07
x1.x3.vss.t56                       4.7144e-05
x1.x3.x4.x.t56                         1.80008
x1.x3.vss.t55                     -7.20053e-06
x1.x3.x5.x.t14                     4.40531e-05
x1.x3.vss.t74                      2.12632e-05
x1.x3.vss.t73                     -3.18615e-07
x1.x3.vss.t247                    -1.54764e-06
x1.x3.eob.t1                           1.80002
x1.x3.vdd.t581                             1.8
x1.x3.vdd.t580                             1.8
x1.x3.vdd.t668                         1.80001
x1.x3.vdd.t667                             1.8
x1.x3.vdd.t208                         1.79998
x1.x3.vdd.t207                             1.8
x1.x3.vdd.t206                         1.80001
x1.x3.vdd.t205                             1.8
x1.x3.vdd.t489                             1.8
x1.x3.x4.x.t20                         1.80007
x1.x3.vdd.t488                             1.8
x1.x3.vss.t208                    -2.05641e-07
x1.x3.vss.t337                     1.41283e-05
x1.x3.vss.t336                    -3.19336e-07
x1.x3.vss.t117                    -4.95594e-07
x1.x3.vdd.t221                             1.8
x1.x3.vdd.t223                             1.8
x1.x3.vdd.t222                             1.8
x1.x3.vss.t142                     2.00996e-05
x1.x3.vss.t141                    -5.97764e-06
x1.x3.vss.t308                     2.57594e-05
x1.x3.vss.t307                    -6.07772e-06
x1.x3.vss.t512                     3.09482e-05
x1.x3.vss.t511                    -1.59627e-05
x1.x3.vss.t544                    -6.69923e-07
x1.x3.vss.t255                    -8.14881e-07
x1.x3.vdd.t38                              1.8
x1.x3.vss.t186                    -2.22724e-06
x1.x3.vss.t599                    -8.06507e-07
x1.x3.vss.t582                      2.6792e-05
x1.x3.vss.t581                    -9.29786e-06
x1.x3.eob.t11                          1.80001
x1.x3.vdd.t595                             1.8
x1.x3.vdd.t594                             1.8
x1.x3.vss.t174                    -4.44763e-07
x1.x3.vss.t173                    -3.27567e-07
x1.x3.vdd.t613                             1.8
x1.x3.vdd.t612                             1.8
x1.x3.vdd.t516                             1.8
x1.x3.vdd.t102                             1.8
x1.x3.vdd.t339                         1.80002
x1.x3.d[1].t2                          1.80013
x1.x3.vdd.t338                             1.8
x1.x3.vdd.t166                             1.8
x1.x3.vdd.t165                             1.8
x1.x3.vdd.t27                              1.8
x1.x3.check[2].t1                  2.51506e-05
x1.x3.vdd.t26                              1.8
x1.x3.vdd.t31                          1.80002
x1.x3.vdd.t30                              1.8
x1.x3.vdd.t186                             1.8
x1.x3.vdd.t185                             1.8
x1.x3.vdd.t63                              1.8
x1.x3.vdd.t62                              1.8
x1.x3.vss.t162                     1.99207e-06
x1.x3.vss.t161                    -6.72853e-07
x1.x3.vdd.t550                             1.8
x1.x3.vdd.t549                             1.8
x1.x3.vss.t375                     6.83577e-08
x1.x3.vss.t374                    -6.39416e-07
x1.x3.vdd.t535                             1.8
x1.x3.vss.t324                     2.53941e-05
x1.x3.vss.t323                    -8.78766e-06
x1.x3.vdd.t92                              1.8
x1.x3.vdd.t91                              1.8
x1.x3.vss.t367                     3.10026e-05
x1.x3.vss.t366                    -1.59868e-05
x1.x3.vdd.t414                             1.8
x1.x3.x4.x.t57                         1.80008
x1.x3.vdd.t413                             1.8
x1.x3.vss.t131                    -1.61775e-07
x1.x3.check[1].t4                  5.18246e-05
x1.x3.vss.t130                     7.83024e-07
x1.x3.d[0].t1                          1.80001
x1.x3.vss.t621                     1.31696e-05
x1.x3.vss.t620                     -1.7768e-06
x1.x3.vss.t389                     4.63275e-05
x1.x3.x4.x.t58                         1.80008
x1.x3.vss.t388                    -6.94604e-06
x1.x3.vss.t448                     2.85033e-05
x1.x3.vss.t447                    -7.92511e-06
x1.x3.x4.x.t59                         1.80008
x1.x3.vss.t629                     3.19665e-05
x1.x3.vss.t628                    -4.29289e-06
x1.x3.vdd.t656                             1.8
x1.x3.clk_sar.t0                  -3.46147e-05
x1.x3.vdd.t655                             1.8
x1.x3.x5.x.t0                      3.59372e-05
x1.x3.vss.t607                     2.74249e-06
x1.x3.vss.t606                     1.34394e-06
x1.x3.vss.t365                    -7.73619e-07
x1.x3.vss.t578                     1.18897e-07
x1.x3.vdd.t515                         1.80001
x1.x3.vdd.t514                             1.8
x1.x3.vdd.t198                         1.80001
x1.x3.vdd.t197                             1.8
x1.x3.vdd.t597                         1.80002
x1.x3.vdd.t596                             1.8
x1.x3.vss.t254                    -4.78616e-06
x1.x3.vdd.t220                             1.8
x1.x3.vdd.t218                             1.8
x1.x3.vdd.t219                             1.8
x1.x3.vss.t86                     -2.02577e-07
x1.x3.vdd.t135                             1.8
x1.x3.vdd.t134                             1.8
x1.x3.vss.t525                     1.12395e-05
x1.x3.vss.t524                    -2.55421e-07
x1.x3.vdd.t540                             1.8
x1.x3.vdd.t539                             1.8
x1.x3.vdd.t696                             1.8
x1.x3.vdd.t695                             1.8
x1.x3.vss.t50                      7.09187e-08
x1.x3.vss.t49                     -6.38058e-07
x1.x3.vss.t667                      1.4949e-05
x1.x3.vss.t666                    -3.42405e-07
x1.x3.vss.t251                    -4.35779e-07
x1.x3.vss.t316                     2.01961e-05
x1.x3.d[1].t3                          1.80012
x1.x3.vss.t315                    -7.34362e-06
x1.x3.vss.t278                     4.94975e-05
x1.x3.vss.t277                     -2.0732e-06
x1.x3.x5.x.t15                     4.39626e-05
x1.x3.vss.t416                     2.27901e-05
x1.x3.vss.t415                     -1.4583e-07
x1.x3.vss.t341                     2.41539e-05
x1.x3.vss.t340                    -1.24066e-05
x1.x3.vdd.t571                             1.8
x1.x3.vdd.t77                              1.8
x1.x3.vdd.t76                              1.8
x1.x3.vdd.t87                              1.8
x1.x3.x4.x.t60                         1.80008
x1.x3.vss.t631                     3.11173e-05
x1.x3.vss.t630                    -4.17676e-06
x1.x3.vdd.t84                              1.8
x1.x3.sel_bit[0].t1                        1.8
x1.x3.vdd.t671                             1.8
x1.x3.vdd.t75                              1.8
x1.x3.vdd.t74                              1.8
x1.x3.vdd.t487                             1.8
x1.x3.x4.x.t19                         1.80007
x1.x3.vdd.t486                             1.8
x1.x3.vss.t601                    -7.88678e-07
x1.x3.vss.t134                    -6.63337e-06
x1.x3.vss.t510                    -2.60711e-06
x1.x3.vss.t115                     5.81498e-07
x1.x3.vdd.t468                             1.8
x1.x3.vdd.t660                             1.8
x1.x3.vdd.t659                             1.8
x1.x3.vss.t611                     4.31414e-05
x1.x3.vss.t610                     -7.9552e-06
x1.x3.d[2].t1                          1.80012
x1.x3.vdd.t611                             1.8
x1.x3.vdd.t610                             1.8
x1.x3.vdd.t428                             1.8
x1.x3.vdd.t427                             1.8
x1.x3.vss.t299                     -1.4185e-07
x1.x3.check[2].t4                  2.47736e-05
x1.x3.vss.t298                     1.09422e-06
x1.x3.vdd.t56                              1.8
x1.x3.vdd.t55                              1.8
x1.x3.vdd.t267                             1.8
x1.x3.vss.t205                     2.07566e-05
x1.x3.vss.t204                    -4.36612e-06
x1.x3.vss.t515                     2.22622e-06
x1.x3.vss.t514                    -6.60483e-07
x1.x3.vss.t123                    -2.52379e-07
x1.x3.vdd.t364                         1.80001
x1.x3.vdd.t363                             1.8
x1.x3.vss.t464                    -1.24484e-06
x1.x3.x4.x.t5                          1.80006
x1.x3.vss.t463                    -7.71977e-07
x1.x3.vdd.t9                           1.80001
x1.x3.vdd.t8                               1.8
x1.x3.vdd.t82                              1.8
x1.x3.vdd.t81                              1.8
x1.x3.vss.t635                     2.44859e-05
x1.x3.vss.t634                    -1.26056e-05
x1.x3.vss.t76                      1.61167e-06
x1.x3.vss.t75                      6.77887e-07
x1.x3.vss.t663                    -4.02408e-06
x1.x3.vdd.t558                         1.79999
[...]
x2.vdd.n10                                 1.8
x2.vdd.n362                                1.8
x2.vdd.n330                                1.8
x2.vdd.n329                                1.8
x2.vdd.n331                                1.8
x2.vdd.n181                                1.8
x2.vdd.n166                                1.8
x2.vdd.n114                                1.8
x2.vdd.n78                                 1.8
x2.vdd.n62                                 1.8
x2.vdd.n262                            1.79999
x2.vdd.n149                                1.8
x2.vdd.n46                                 1.8
x2.vdd.n8                                  1.8
x2.vdd.n7                                  1.8
x2.vdd.n361                                1.8
x2.vdd.n258                                1.8
x2.vdd.n255                                1.8
x2.vdd.n252                                1.8
x2.vdd.n42                                 1.8
x2.vdd.n39                                 1.8
x2.vdd.n261                            1.79999
x2.vdd.n148                                1.8
x2.vdd.n45                                 1.8
x2.vdd.n165                                1.8
x2.vdd.n113                                1.8
x2.vdd.n77                                 1.8
x2.vdd.n61                                 1.8
x2.vdd.n311                                1.8
x2.vdd.n277                                1.8
x2.vdd.n131                                1.8
x2.vdd.n95                                 1.8
x2.vdd.n0                                  1.8
x2.vdd.n49                                 1.8
x2.vdd.n345                                1.8
x2.vdd.n293                                1.8
x2.vdd.n328                                1.8
x2.vdd.n319                                1.8
x2.vdd.n263                            1.79999
x2.vdd.n9                                  1.8
x2.vdd.n323                                1.8
x2.vdd.n288                                1.8
x2.vdd.n199                                1.8
x2.vdd.n213                                1.8
x2.vdd.n226                                1.8
x2.vdd.n143                                1.8
x2.vdd.n108                                1.8
x2.vdd.n3                                  1.8
x2.ready.n0                            1.80009
x2.vss.n109                        7.85508e-07
x2.vss.n104                        1.34065e-06
x2.vss.n121                         1.0478e-06
x2.vss.n81                         1.92505e-06
x2.vss.n67                         1.90668e-06
x2.vss.n72                         1.63378e-06
x2.vss.n91                         1.94922e-06
x2.vss.n115                        1.02487e-06
x2.vss.n114                        9.67503e-07
x2.vss.n34                         1.90582e-06
x2.vss.n87                          1.9691e-06
x2.vss.n98                         1.68876e-06
x2.vss.n42                         1.66034e-06
x2.vss.n62                         1.93346e-06
x2.vss.n38                         1.33603e-06
x2.vss.n162                        5.13785e-07
x2.vss.n33                         2.49121e-06
x2.vss.n58                         1.85837e-06
x2.vss.n97                         1.53824e-06
x2.vss.n96                         1.49681e-06
x2.vss.n86                         1.80014e-06
x2.vss.n85                         1.74383e-06
x2.vss.n166                        3.64778e-07
x2.vss.n120                        1.06356e-06
x2.vss.n53                         1.84225e-06
x2.vss.n108                         5.8644e-07
x2.vss.n125                        7.05508e-07
x2.vss.n19                         2.55463e-06
x2.vss.n147                        1.53108e-06
x2.vss.n71                         1.89701e-06
x2.vss.n113                        1.17841e-06
x2.vss.n12                         2.50718e-06
x2.vss.n138                        1.47938e-06
x2.vss.n8                          1.91351e-06
x2.vss.n3                          9.93504e-07
x2.vss.n131                        5.85495e-07
x2.vss.n143                        1.57728e-06
x2.vss.n15                         2.59834e-06
x2.vss.n80                         1.88016e-06
x2.vss.n103                        1.37364e-06
x2.vss.n51                         1.94033e-06
x2.vss.n47                         1.94076e-06
x2.vss.n46                         1.94076e-06
x2.vss.n7                           1.6228e-06
x2.vss.n140                         1.5237e-06
x2.vss.n139                         1.5237e-06
x2.vss.n145                        1.55043e-06
x2.vss.n144                        1.55043e-06
x2.vss.n137                        1.47147e-06
x2.vss.n136                        1.47147e-06
x2.vss.n150                        1.49751e-06
x2.vss.n149                        1.49751e-06
x2.vss.n14                         2.59834e-06
x2.vss.n13                         2.59834e-06
x2.vss.n17                         2.57379e-06
x2.vss.n16                         2.57379e-06
x2.vss.n21                         2.54933e-06
x2.vss.n20                         2.54933e-06
x2.vss.n24                         2.52543e-06
x2.vss.n23                         2.52543e-06
x2.vss.n10                         2.50185e-06
x2.vss.n9                          2.50185e-06
x2.vss.n142                        1.57728e-06
x2.vss.n141                        1.57728e-06
x2.vss.n32                         2.49121e-06
x2.vss.n49                         1.94076e-06
x2.vss.n48                         1.94076e-06
x2.vss.n44                         1.88411e-06
x2.vss.n43                         1.77223e-06
x2.vss.n132                        6.68142e-07
x2.vss.n126                         7.7782e-07
x2.vss.n25                         2.52543e-06
x2.vss.n148                         1.5237e-06
x2.vss.n146                        1.55043e-06
x2.vss.n151                        1.49751e-06
x2.vss.n18                         2.57379e-06
x2.vss.n22                         2.54933e-06
x2.vss.n50                         1.94076e-06
x2.vss.n45                         1.94094e-06
x2.vss.n6                          1.38045e-06
x2.vss.n5                          1.38045e-06
x2.vss.n4                          1.38045e-06
x2.vss.n36                         2.18781e-06
x2.vss.n35                         2.04681e-06
x2.vss.n40                         1.82508e-06
x2.vss.n39                         1.58056e-06
x2.vss.n83                         1.88541e-06
x2.vss.n82                         1.90523e-06
x2.vss.n78                         1.88818e-06
x2.vss.n77                         1.88818e-06
x2.vss.n76                         1.88818e-06
x2.vss.n74                         1.84331e-06
x2.vss.n73                         1.73854e-06
x2.vss.n69                         1.90613e-06
x2.vss.n68                         1.90641e-06
x2.vss.n64                         1.91911e-06
x2.vss.n63                         1.92629e-06
x2.vss.n60                         1.91145e-06
x2.vss.n59                         1.88491e-06
x2.vss.n55                         1.91953e-06
x2.vss.n54                         1.88089e-06
x2.vss.n100                        1.53842e-06
x2.vss.n99                         1.61359e-06
x2.vss.n93                         1.69567e-06
x2.vss.n92                         1.82244e-06
x2.vss.n89                         1.80022e-06
x2.vss.n88                         1.88466e-06
x2.vss.n2                          5.51642e-07
x2.vss.n1                          5.51642e-07
x2.vss.n0                          5.51642e-07
x2.vss.n168                        5.50224e-07
x2.vss.n167                        4.57501e-07
x2.vss.n164                        6.59152e-07
x2.vss.n163                        5.86469e-07
x2.vss.n134                        7.76133e-07
x2.vss.n133                        7.22138e-07
x2.vss.n128                        8.72307e-07
x2.vss.n127                        8.25064e-07
x2.vss.n123                        1.00314e-06
x2.vss.n122                        1.02547e-06
x2.vss.n117                        1.07553e-06
x2.vss.n116                         1.0502e-06
x2.vss.n111                        1.10428e-06
x2.vss.n110                        9.44893e-07
x2.vss.n106                        1.29422e-06
x2.vss.n105                        1.31743e-06
x2.vss.n155                        1.47147e-06
x2.vss.n11                         2.50185e-06
x2.vss.n170                        5.51642e-07
x2.vss.n41                          1.9493e-06
x2.vss.n84                         1.87534e-06
x2.vss.n79                         1.88818e-06
x2.vss.n75                         1.89653e-06
x2.vss.n70                         1.90599e-06
x2.vss.n65                         1.91547e-06
x2.vss.n61                         1.92493e-06
x2.vss.n101                        1.50145e-06
x2.vss.n94                         1.63127e-06
x2.vss.n90                         1.75898e-06
x2.vss.n102                        1.38045e-06
x2.vss.n169                        5.97327e-07
x2.vss.n165                        6.96075e-07
x2.vss.n129                        8.96307e-07
x2.vss.n124                        9.91795e-07
x2.vss.n118                         1.0884e-06
x2.vss.n112                        1.18525e-06
x2.vss.n107                        1.28242e-06
x2.vss.n160                        7.95704e-07
x2.vss.n159                        1.05976e-06
x2.vss.n30                          2.2637e-06
x2.vss.n28                         2.50185e-06
x2.vss.n31                         2.05791e-06
x2.vss.n158                        1.06394e-06
x2.vss.n157                        1.29118e-06
x2.vss.n56                         1.93503e-06
x2.vss.n135                        7.97789e-07
x2.vss.n156                        1.29427e-06
x2.vss.n37                         2.20583e-06
x2.vss.n57                          1.9345e-06
x2.vss.n95                         1.62755e-06
x2.vss.n26                         2.50868e-06
x2.vss.n152                        1.48072e-06
x2.vss.n66                         1.91498e-06
x2.vss.n119                        9.94838e-07
x2.vss.n154                        1.47176e-06
x2.vss.n153                        1.47713e-06
x2.vss.n27                         2.50436e-06
x2.vss.n130                         8.0991e-07
x2.vss.n161                        7.73874e-07
x2.vss.n52                         1.93628e-06
x2.vss.n29                          2.2637e-06
x2.comp_outn.n0                        1.79992
x2.comp_outn.n1                        1.79992
net11                                  1.79992
x2.comp_outn.n4                        1.79992
x2.comp_outn.n2                        1.79992
x2.comp_outn.n5                        1.79992
x2.comp_outn.n3                        1.79992
x2.comp_outn.n6                        1.79992
x2.cdac_vn.n0                         0.285793
x2.cdac_vn.n1                         0.285792
x2.cdac_vn.n2                         0.285789
x2.cdac_vn.n3                         0.285786
x2.cdac_vn.n4                          0.28578
x2.cdac_vn.n5                         0.285772
x2.cdac_vn.n6                          0.28576
tah_vn                                0.285753
x2.cdac_vp.n0                         0.648809
x2.cdac_vp.n6                         0.648821
x2.cdac_vp.n5                         0.648823
x2.cdac_vp.n4                         0.648821
x2.cdac_vp.n3                         0.648818
x2.cdac_vp.n2                         0.648815
x2.cdac_vp.n1                         0.648812
tah_vp                                0.648819
x2.comp_outp.n1                        1.80012
x2.comp_outp.n0                        1.80012
x2.comp_outp.n3                        1.80012
x2.comp_outp.n2                        1.80012
x2.comp_outp.n4                        1.80012
x2.clk.n4                         -3.67067e-05
x2.clk.n3                         -3.66977e-05
x2.clk.n1                         -3.45992e-05
x2.clk.n0                         -3.47262e-05
x2.clk.n5                         -3.54292e-05
x2.clk.n2                         -3.46665e-05
x2.clk.n6                         -3.46671e-05
x3.net2                               0.900176
x3.net1                            0.000265278
x3.sw2                             0.000268015
x3.sw3                             0.000280742
x3.sw4                                0.900192
x3.sw5                                0.900198
x3.sw6                                0.900191
sw6                                0.000255727
vref                                       0.9
sw2                                    1.80013
sw3                                    1.80011
sw4                                0.000257854
sw5                                0.000321108
x3.net4                               0.900176
x3.net3                               0.900182
x3.swd2                            0.000268015
x3.swd3                            0.000280742
x3.swd4                            0.000266202
x3.swd5                            0.000276832
x3.swd6                               0.900191
swd6                               0.000255727
swd2                                   1.80013
swd3                                   1.80011
swd4                                   1.80003
swd5                                   1.80019
x4.net2                            0.000165153
x4.net1                               0.900136
x4.sw2                                0.900146
x4.sw3                                0.900136
x4.sw4                             0.000147719
x4.sw5                             0.000157771
x4.sw6                             0.000146046
net5                                   1.79997
net1                               0.000224805
net2                               0.000104311
net3                                   1.79999
net4                                   1.80015
x4.net4                             0.00016528
x4.net3                            0.000154945
x4.swd2                               0.900146
x4.swd3                               0.900136
x4.swd4                               0.900143
x4.swd5                               0.900144
x4.swd6                            0.000146046
net6                                   1.79997
net10                              0.000224812
net9                               0.000104314
net8                               0.000193401
net7                               0.000201402
vip                                        1.8
vin                                        0.9
net12                                        0
net13                                        0
net14                                        0
net15                                      1.8
net16                                      1.8
net17                                      1.8
net18                                      1.8
net19                                        0
x6.net1                            0.000163559
x6.net2                            0.000171563
x6.net3                            0.000168803
x6.net4                            0.000163198
x7.net1                            0.000163571
x7.net2                            0.000171563
x7.net3                                1.79969
x7.net4                                 1.7997
x8.net1                                1.79971
x8.net2                                1.79979
x8.net3                                1.79969
x8.net4                                 1.7997
x9.net1                                1.79971
x9.net2                                1.79979
x9.net3                            0.000169085
x9.net4                            0.000163508
net20                                        0
net21                                      1.8
net22                                      1.8
net23                                        0
net24                                        0
net25                                      1.8
net26                                      1.8
net27                                        0
net28                                        0
net29                                        0
net30                                        0
net31                                      1.8
net32                                      1.8
net33                                      1.8
net34                                      1.8
net35                                        0
x10.net1                               1.05851
net37                                 0.687117
net38                                  1.79955
x10.net3                              0.764276
x10.net2                                1.8007
x11.net1                               1.05851
net41                                 0.687117
net42                                  1.79955
x11.net3                              0.764276
x11.net2                                1.8007
v76#branch                                   0
v75#branch                                   0
v74#branch                                   0
v73#branch                        -1.69768e-08
v72#branch                         -8.4884e-09
v71#branch                                   0
v70#branch                                   0
v69#branch                        -1.62694e-08
v68#branch                                   0
v67#branch                         1.41103e-08
v66#branch                        -1.35484e-08
v65#branch                                   0
v64#branch                                   0
v63#branch                         1.44383e-08
v62#branch                        -1.34962e-08
v61#branch                        -8.13469e-09
v35#branch                                   0
v30#branch                                   0
v29#branch                                   0
v28#branch                        -1.62002e-08
v27#branch                                   0
v26#branch                          1.4029e-08
v25#branch                        -1.35509e-08
v20#branch                        -8.10009e-09
v19#branch                                   0
v14#branch                                   0
v13#branch                                   0
v12#branch                         4.52348e-08
v11#branch                                   0
v10#branch                         1.09381e-08
v9#branch                         -1.33473e-08
v3#branch                          2.26174e-08
v4#branch                         -3.23818e-08
v2#branch                         -6.34779e-08
v1#branch                         -2.36184e-06
v59#branch                        -1.20501e-07
v58#branch                        -8.15819e-08
v60#branch                         4.63171e-10
v57#branch                         3.48228e-05
v56#branch                        -2.92915e-07
v55#branch                        -9.22631e-06
v54#branch                        -1.33292e-05
v53#branch                         8.92483e-05
v52#branch                        -9.85833e-05
v51#branch                                   0
v50#branch                                   0
v49#branch                                   0
v48#branch                        -1.71734e-08
v47#branch                         -8.5867e-09
v46#branch                                   0
v45#branch                                   0
v44#branch                        -1.70363e-08
v43#branch                                   0
v42#branch                          1.4453e-08
v41#branch                        -1.34953e-08
v40#branch                                   0
v39#branch                                   0
v38#branch                         1.43345e-08
v37#branch                        -1.35357e-08
v36#branch                        -8.51815e-09


No. of Data Rows : 25047
Warning - approaching max data size: current size = 8643.520 MB, limit = 8785.242 MB
ERROR: (internal)  This operation is not defined for display type PrinterOnly.
Can't open viewport for graphics.
Warning - approaching max data size: current size = 8644.645 MB, limit = 8782.941 MB
Note: No ".plot", ".print", or ".fourier" lines; no simulations run
