
Note: Compatibility modes selected: hs a

Warning: m=xx on .subckt line will override multiplier m hierarchy!

Warning: redefinition of .subckt hgu_cdac_unit, ignored

Circuit: ** sch_path: /foss/designs/hgu_goss/hgu/xschem/hgu_top.sch

option SCALE: Scale is set to 1e-06 for instance and model parameters
Doing analysis at TEMP = 27.000000 and TNOM = 27.000000

Warning: singular matrix:  check node net41

Note: Starting dynamic gmin stepping
Trying gmin =   1.0000E-03 Note: One successful gmin step
Trying gmin =   1.0000E-04 Note: One successful gmin step
Trying gmin =   1.0000E-05 Note: One successful gmin step
Trying gmin =   1.0000E-06 Warning: Further gmin increment
Trying gmin =   5.6234E-06 Note: One successful gmin step
Trying gmin =   2.3714E-06 Note: One successful gmin step
Trying gmin =   1.0000E-06 Note: One successful gmin step
Trying gmin =   2.7384E-07 Note: One successful gmin step
Trying gmin =   7.4989E-08 Note: One successful gmin step
Trying gmin =   2.0535E-08 Note: One successful gmin step
Trying gmin =   2.9427E-09 Note: One successful gmin step
Trying gmin =   2.9427E-10 Note: One successful gmin step
Trying gmin =   2.9427E-11 Warning: Further gmin increment
Trying gmin =   1.6548E-10 Note: One successful gmin step
Trying gmin =   6.9783E-11 Note: One successful gmin step
Trying gmin =   1.9110E-11 Warning: Further gmin increment
Trying gmin =   5.0481E-11 Note: One successful gmin step
Trying gmin =   3.1059E-11 Warning: Further gmin increment
Trying gmin =   4.4709E-11 Note: One successful gmin step
Trying gmin =   3.7264E-11 Warning: Further gmin increment
Trying gmin =   4.2718E-11 Note: One successful gmin step
Trying gmin =   3.9898E-11 Warning: Further gmin increment
Trying gmin =   4.1995E-11 Note: One successful gmin step
Trying gmin =   4.0933E-11 Note: One successful gmin step
Trying gmin =   3.9390E-11 Warning: Further gmin increment
Trying gmin =   4.0542E-11 Note: One successful gmin step
Trying gmin =   3.9962E-11 Warning: Further gmin increment
Trying gmin =   4.0396E-11 Note: One successful gmin step
Trying gmin =   4.0179E-11 Note: One successful gmin step
Trying gmin =   3.9854E-11 Warning: Further gmin increment
Trying gmin =   4.0097E-11 Note: One successful gmin step
Trying gmin =   3.9976E-11 Warning: Further gmin increment
Trying gmin =   4.0067E-11 Note: One successful gmin step
Trying gmin =   4.0021E-11 Warning: Further gmin increment
Trying gmin =   4.0055E-11 Note: One successful gmin step
Trying gmin =   4.0038E-11 Note: One successful gmin step
Trying gmin =   4.0013E-11 Warning: Further gmin increment
Trying gmin =   4.0032E-11 Note: One successful gmin step
Trying gmin =   4.0022E-11 Warning: Further gmin increment
Trying gmin =   4.0029E-11 Note: One successful gmin step
Trying gmin =   4.0027E-11 Warning: Further gmin increment
Trying gmin =   4.0029E-11 Warning: Last gmin step failed
Warning: singular matrix:  check node net41

Warning: Dynamic gmin stepping failed
Note: Starting true gmin stepping
Trying gmin =   1.0000E-03 Warning: singular matrix:  check node net41

Warning: Further gmin increment
Trying gmin =   5.6234E-03 Warning: singular matrix:  check node net41

Warning: Further gmin increment
Trying gmin =   8.6596E-03 Warning: singular matrix:  check node net41

Warning: Further gmin increment
Trying gmin =   9.6466E-03 Warning: singular matrix:  check node net41

Warning: Further gmin increment
Trying gmin =   9.9105E-03 Warning: Further gmin increment
Trying gmin =   9.9775E-03 Warning: Further gmin increment
Trying gmin =   9.9944E-03 Warning: Further gmin increment
Trying gmin =   9.9986E-03 Warning: Further gmin increment
Trying gmin =   9.9996E-03 Warning: Last gmin step failed
Warning: True gmin stepping failed
Note: Starting source stepping
Supplies reduced to   0.0000% 
Trying gmin =   1.0000E-02 Note: One successful gmin step
Trying gmin =   1.0000E-03 Note: One successful gmin step
Trying gmin =   1.0000E-04 Note: One successful gmin step
Trying gmin =   1.0000E-05 Note: One successful gmin step
Trying gmin =   1.0000E-06 Note: One successful gmin step
Trying gmin =   1.0000E-07 Note: One successful gmin step
Trying gmin =   1.0000E-08 Note: One successful gmin step
Trying gmin =   1.0000E-09 Note: One successful gmin step
Trying gmin =   1.0000E-10 Note: One successful gmin step
Trying gmin =   1.0000E-11 Note: One successful gmin step
Trying gmin =   1.0000E-12 Note: One successful gmin step
Note: One successful source step
Supplies reduced to   0.1000% Supplies reduced to   0.0000% Warning: source stepping failed
Note: Transient op started
Note: Transient op finished successfully

Initial Transient Solution
--------------------------

Node                                   Voltage
----                                   -------
vpwr                                       1.8
sample_clk                         0.000380842
vpb                                        1.8
x1.x1.net2                              1.7999
vnb                                          0
vss                                          0
x1.x1.net4                             1.79987
vgnd                                         0
x1.eob                                 1.80003
sar_clk                           -3.34163e-05
x1.x1.net6                         -0.00102393
vdd                                        1.8
x1.x1.net5                             1.78796
x1.x1.net7                        -0.000818821
x1.x1.net1                             1.79993
x1.x1.net3                         -0.00203127
x1.x1.x2.net1                      1.25013e-05
x1.x1.x2.net3                          1.35601
x1.x1.x2.net2                              1.8
async_setb_delay_cap_ctrl_code[0]             1.8
x1.x1.x2.net6                      4.27526e-06
async_setb_delay_cap_ctrl_code[1]             1.8
x1.x1.x2.net7                      4.27526e-06
async_setb_delay_cap_ctrl_code[2]               0
x1.x1.x2.net8                      -7.8524e-06
x1.x1.x2.net9                           1.7786
x1.x1.x2.net4                              1.8
async_setb_delay_cap_ctrl_code[3]               0
x1.x1.x2.net10                    -7.84152e-06
x1.x1.x2.net11                         1.77633
x1.x1.x2.net5                          1.79997
ready                                  1.80002
x1.x1.x2.x8.net1                       1.71474
x1.x1.x2.x8.net2                       1.71926
x1.x1.x2.x8.net3                       1.71933
x1.x1.x2.x8.net4                       1.72074
x1.x1.x2.x8.net5                       1.77234
x1.x1.x2.x9.net1                   -8.7151e-05
x1.x1.x2.x9.net2                   0.000111276
x1.x1.x2.x9.net3                   2.55154e-05
x1.x1.x2.x9.net4                  -7.92726e-05
x1.x1.x2.x9.net5                  -6.57013e-05
x1.x1.x2.x9.net6                   4.53041e-05
x1.x1.x2.x9.net7                   0.000170983
x1.x1.x2.x9.net8                   0.000163288
x1.x1.x2.x9.net9                  -8.52857e-05
x1.x1.x2.x9.net10                 -0.000397955
x1.x1.x2.x9.net11                 -0.000231631
x1.x1.x2.x9.net12                    0.0006798
x1.x1.x2.x9.net13                  0.000638279
x1.x1.x2.x9.net14                  -0.00124511
x1.x1.x2.x9.net15                   0.00047868
x1.x1.x4.net1                          1.79976
x1.x1.x4.net3                      -0.00125105
x1.x1.x4.net2                         0.460315
async_resetb_delay_cap_ctrl_code[0]             1.8
x1.x1.x4.net6                          1.32036
async_resetb_delay_cap_ctrl_code[1]             1.8
x1.x1.x4.net7                          1.32094
async_resetb_delay_cap_ctrl_code[2]               0
x1.x1.x4.net8                      5.98453e-05
x1.x1.x4.net9                          1.79623
x1.x1.x4.net4                              1.8
async_resetb_delay_cap_ctrl_code[3]               0
x1.x1.x4.net10                     5.98074e-05
x1.x1.x4.net11                         1.79352
x1.x1.x4.net5                          1.79996
x1.x1.x4.x8.net1                       1.80001
x1.x1.x4.x8.net2                       1.80016
x1.x1.x4.x8.net3                       1.80013
x1.x1.x4.x8.net4                       1.80011
x1.x1.x4.x8.net5                       1.80002
x1.x1.x4.x9.net1                   0.000427816
x1.x1.x4.x9.net2                  -7.72072e-06
x1.x1.x4.x9.net3                   -6.5969e-06
x1.x1.x4.x9.net4                  -6.58872e-06
x1.x1.x4.x9.net5                  -6.58781e-06
x1.x1.x4.x9.net6                   -6.5945e-06
x1.x1.x4.x9.net7                  -6.57758e-06
x1.x1.x4.x9.net8                  -6.59449e-06
x1.x1.x4.x9.net9                  -6.57752e-06
x1.x1.x4.x9.net10                 -6.59479e-06
x1.x1.x4.x9.net11                  -6.5878e-06
x1.x1.x4.x9.net12                 -6.58862e-06
x1.x1.x4.x9.net13                 -6.60662e-06
x1.x1.x4.x9.net14                 -8.72632e-06
x1.x1.x4.x9.net15                  -0.00049613
x1.x2.x1.net2                          1.79978
x1.x2.x1.d_loop                   -0.000359222
x1.x2.x1.net1                          1.80008
x1.x2.net2                             1.80007
ext_clk                                      0
x1.x2.x2.net1                          1.79936
x1.x2.x2.x4.net1                   7.56826e-06
x1.x2.x2.x4.net3                        1.3559
x1.x2.x2.x4.net2                        1.7992
cap_ctrl_code[0]                           1.8
x1.x2.x2.x4.net6                  -2.35782e-05
cap_ctrl_code[1]                           1.8
x1.x2.x2.x4.net7                  -2.35782e-05
cap_ctrl_code[2]                             0
x1.x2.x2.x4.net8                  -6.95533e-06
x1.x2.x2.x4.net9                       1.77861
x1.x2.x2.x4.net4                           1.8
cap_ctrl_code[3]                             0
x1.x2.x2.x4.net10                 -6.94567e-06
x1.x2.x2.x4.net11                      1.77633
x1.x2.x2.x4.net5                       1.79997
x1.x2.x2.x4.x8.net1                    1.67133
x1.x2.x2.x4.x8.net2                    1.85548
x1.x2.x2.x4.x8.net3                    1.92588
x1.x2.x2.x4.x8.net4                    1.93408
x1.x2.x2.x4.x8.net5                    1.92592
x1.x2.x2.x4.x9.net1               -0.000247891
x1.x2.x2.x4.x9.net2                1.15323e-05
x1.x2.x2.x4.x9.net3                0.000193039
x1.x2.x2.x4.x9.net4                0.000234358
x1.x2.x2.x4.x9.net5                0.000168693
x1.x2.x2.x4.x9.net6               -1.74204e-05
x1.x2.x2.x4.x9.net7               -0.000283583
x1.x2.x2.x4.x9.net8               -0.000454004
x1.x2.x2.x4.x9.net9               -0.000275975
x1.x2.x2.x4.x9.net10               0.000333874
x1.x2.x2.x4.x9.net11                0.00094884
x1.x2.x2.x4.x9.net12               0.000759942
x1.x2.x2.x4.x9.net13              -0.000472913
x1.x2.x2.x4.x9.net14               -0.00140965
x1.x2.x2.x4.x9.net15               0.000527477
x1.x2.x2.net2                          1.79965
x1.x2.x2.x1.net1                    0.00036345
x1.x2.x2.x1.net3                       1.35602
x1.x2.x2.x1.net2                        1.7981
cap_ctrl_code[4]                           1.8
x1.x2.x2.x1.net6                    0.00039062
cap_ctrl_code[5]                           1.8
x1.x2.x2.x1.net7                    0.00039062
cap_ctrl_code[6]                             0
x1.x2.x2.x1.net8                  -7.22431e-06
x1.x2.x2.x1.net9                       1.77861
x1.x2.x2.x1.net4                       1.79999
cap_ctrl_code[7]                             0
x1.x2.x2.x1.net10                 -7.21424e-06
x1.x2.x2.x1.net11                      1.77633
x1.x2.x2.x1.net5                       1.79996
x1.x2.x2.x1.x8.net1                     1.8187
x1.x2.x2.x1.x8.net2                    1.89037
x1.x2.x2.x1.x8.net3                    1.91087
x1.x2.x2.x1.x8.net4                    1.91498
x1.x2.x2.x1.x8.net5                    1.90434
x1.x2.x2.x1.x9.net1               -0.000546404
x1.x2.x2.x1.x9.net2                -0.00145223
x1.x2.x2.x1.x9.net3                 -0.0022578
x1.x2.x2.x1.x9.net4                -0.00286451
x1.x2.x2.x1.x9.net5                 -0.0031098
x1.x2.x2.x1.x9.net6                -0.00282028
x1.x2.x2.x1.x9.net7                -0.00192902
x1.x2.x2.x1.x9.net8               -0.000627653
x1.x2.x2.x1.x9.net9                0.000584466
x1.x2.x2.x1.x9.net10                 0.0010188
x1.x2.x2.x1.x9.net11               0.000354478
x1.x2.x2.x1.x9.net12              -0.000565707
x1.x2.x2.x1.x9.net13              -0.000400888
x1.x2.x2.x1.x9.net14               9.79208e-05
x1.x2.x2.x1.x9.net15              -1.45948e-05
x1.x2.x2.net3                          1.79763
x1.x2.x2.x2.net1                  -0.000136161
x1.x2.x2.x2.net3                        1.3556
x1.x2.x2.x2.net2                       1.80033
cap_ctrl_code[8]                           1.8
x1.x2.x2.x2.net6                  -2.13213e-05
cap_ctrl_code[9]                           1.8
x1.x2.x2.x2.net7                  -2.13213e-05
cap_ctrl_code[10]                            0
x1.x2.x2.x2.net8                  -7.14361e-06
x1.x2.x2.x2.net9                       1.77861
x1.x2.x2.x2.net4                       1.79999
cap_ctrl_code[11]                            0
x1.x2.x2.x2.net10                 -7.13364e-06
x1.x2.x2.x2.net11                      1.77633
x1.x2.x2.x2.net5                       1.79996
x1.x2.x2.x2.x8.net1                    1.80428
x1.x2.x2.x2.x8.net2                    1.86576
x1.x2.x2.x2.x8.net3                    1.88911
x1.x2.x2.x2.x8.net4                    1.89508
x1.x2.x2.x2.x8.net5                    1.88334
x1.x2.x2.x2.x9.net1               -0.000346428
x1.x2.x2.x2.x9.net2               -0.000708003
x1.x2.x2.x2.x9.net3               -0.000922049
x1.x2.x2.x2.x9.net4               -0.000818093
x1.x2.x2.x2.x9.net5               -0.000365382
x1.x2.x2.x2.x9.net6                0.000280228
x1.x2.x2.x2.x9.net7                0.000809371
x1.x2.x2.x2.x9.net8                0.000892007
x1.x2.x2.x2.x9.net9                0.000454745
x1.x2.x2.x2.x9.net10              -0.000152043
x1.x2.x2.x2.x9.net11              -0.000373321
x1.x2.x2.x2.x9.net12               9.37763e-05
x1.x2.x2.x2.x9.net13               3.05991e-05
x1.x2.x2.x2.x9.net14               4.18014e-05
x1.x2.x2.x2.x9.net15              -3.13711e-05
x1.x2.net8                              1.7999
x1.x2.x2.x3.net1                   0.000622549
x1.x2.x2.x3.net3                       1.35611
x1.x2.x2.x3.net2                       1.79984
cap_ctrl_code[12]                          1.8
x1.x2.x2.x3.net6                    0.00119874
cap_ctrl_code[13]                          1.8
x1.x2.x2.x3.net7                    0.00119874
cap_ctrl_code[14]                            0
x1.x2.x2.x3.net8                  -5.33585e-06
x1.x2.x2.x3.net9                       1.77861
x1.x2.x2.x3.net4                       1.79995
cap_ctrl_code[15]                            0
x1.x2.x2.x3.net10                 -5.32832e-06
x1.x2.x2.x3.net11                      1.77633
x1.x2.x2.x3.net5                       1.79996
x1.x2.x2.x3.x8.net1                    1.80059
x1.x2.x2.x3.x8.net2                    1.85724
x1.x2.x2.x3.x8.net3                    1.87941
x1.x2.x2.x3.x8.net4                    1.88511
x1.x2.x2.x3.x8.net5                    1.87299
x1.x2.x2.x3.x9.net1                -0.00216051
x1.x2.x2.x3.x9.net2                -0.00412577
x1.x2.x2.x3.x9.net3                 -0.0053418
x1.x2.x2.x3.x9.net4                -0.00583464
x1.x2.x2.x3.x9.net5                -0.00561818
x1.x2.x2.x3.x9.net6                -0.00482375
x1.x2.x2.x3.x9.net7                -0.00380303
x1.x2.x2.x3.x9.net8                -0.00301457
x1.x2.x2.x3.x9.net9                -0.00270503
x1.x2.x2.x3.x9.net10               -0.00262774
x1.x2.x2.x3.x9.net11               -0.00224796
x1.x2.x2.x3.x9.net12               -0.00125239
x1.x2.x2.x3.x9.net13              -0.000836651
x1.x2.x2.x3.x9.net14              -0.000418431
x1.x2.x2.x3.x9.net15              -0.000190545
x1.x2.net1                        -4.46226e-06
x1.x2.net4                             1.79997
x1.x2.net7                         5.45759e-05
x1.x2.net3                             1.79997
x1.x2.net5                        -2.10376e-05
x1.x2.net6                             1.80002
sample_clk_b                           1.80043
x1.x3.vdd.t263                          1.7998
x1.x3.d[3].t0                          1.79995
x1.x3.vdd.t262                         1.79987
x1.x3.vdd.t266                         1.79989
x1.x3.check[1].t0                      1.80016
x1.x3.vdd.t265                         1.79984
x1.x3.vdd.t333                         1.79986
x1.x3.d[0].t2                          1.80028
x1.x3.vdd.t332                         1.79987
x1.x3.vdd.t585                         1.79985
x1.x3.eob.t3                           1.79991
x1.x3.vdd.t584                         1.79988
x1.x3.vss.t550                     0.000588207
x1.x3.vdd.t725                         1.79953
x1.x3.vss.t246                     0.000238409
x1.x3.vss.t245                     0.000428409
x1.x3.vdd.t542                         1.79986
x1.x3.vdd.t541                         1.79982
x1.x3.x4.x.t32                         1.79978
x1.x3.vss.t543                     0.000249576
x1.x3.vss.t542                     0.000213866
x1.x3.vdd.t261                         1.79997
x1.x3.vss.t586                     0.000430556
x1.x3.vss.t585                     0.000393953
x1.x3.vss.t533                     0.000427277
x1.x3.check[5].t2                       1.7995
x1.x3.vss.t150                     0.000203141
x1.x3.vss.t149                     0.000169262
x1.x3.vdd.t609                         1.79993
x1.x3.vss.t605                     0.000119485
x1.x3.x30.q_n                      1.35327e-05
x1.x3.vss.t604                     1.86143e-05
x1.x3.vdd.t156                         1.79989
x1.x3.vdd.t155                         1.79989
x1.x3.vss.t570                     0.000339729
x1.x3.x45.q_n                      2.98823e-05
x1.x3.vss.t569                     0.000341006
x1.x3.vss.t600                     0.000390964
x1.x3.x72.q_n                      0.000126626
x1.x3.vss.t144                      0.00029146
x1.x3.vss.t143                     0.000565108
x1.x3.vss.t521                     0.000108968
x1.x3.x27.q_n                      1.36404e-05
x1.x3.vss.t520                     3.46964e-05
x1.x3.x77.y                       -1.82626e-05
x1.x3.vdd.t7                           1.79981
x1.x3.vdd.t6                           1.79994
x1.x3.vdd.t637                         1.79998
x1.x3.vss.t116                     0.000243398
x1.x3.vss.t263                     0.000312095
x1.x3.x4.x.t33                         1.79965
x1.x3.vss.t262                     0.000362087
x1.x3.vdd.t137                         1.79984
x1.x3.vdd.t136                         1.79997
x1.x3.vdd.t180                         1.79992
x1.x3.check[0].t1                      1.80026
x1.x3.vdd.t179                         1.79981
x1.x3.x4.x.t34                          1.8003
x1.x3.vdd.t276                         1.79986
x1.x3.vdd.t275                         1.79989
x1.x3.vss.t410                     3.40907e-05
x1.x3.vdd.t170                         1.79986
x1.x3.x75.q                            1.80002
x1.x3.vdd.t169                         1.79986
x1.x3.vss.t529                     0.000174859
x1.x3.vss.t528                     0.000132666
x1.x3.vdd.t712                         1.79982
x1.x3.vdd.t711                         1.79997
x1.x3.check[2].t2                      1.79954
x1.x3.vss.t136                     0.000329934
x1.x3.vss.t135                     0.000311922
x1.x3.vdd.t337                         1.79982
x1.x3.vdd.t336                         1.79988
x1.x3.vss.t45                      0.000152508
x1.x3.d[0].t3                          1.79961
x1.x3.vss.t44                      0.000346977
x1.x3.vdd.t325                         1.79973
x1.x3.x4.x.t35                         1.80031
x1.x3.vdd.t324                         1.79984
x1.x3.vss.t592                     4.46615e-05
x1.x3.vss.t484                     0.000377615
x1.x3.x4.x.t15                         1.80004
x1.x3.vss.t483                     0.000177917
x1.x3.vdd.t3                           1.79987
x1.x3.vdd.t2                           1.79996
x1.x3.vdd.t533                         1.79996
x1.x3.vdd.t257                         1.79997
x1.x3.vdd.t259                         1.79998
x1.x3.vdd.t258                         1.79994
x1.x3.vdd.t107                          1.8001
x1.x3.vdd.t106                         1.79982
x1.x3.vss.t541                     0.000282754
x1.x3.x20.q_n                          1.80005
x1.x3.vss.t540                     5.60475e-05
x1.x3.d[2].t0                          1.80004
x1.x3.vss.t580                      0.00040488
x1.x3.vss.t579                     0.000518558
x1.x3.vss.t28                        5.991e-05
x1.x3.vdd.t200                         1.79996
x1.x3.vdd.t694                         1.79986
x1.x3.vdd.t693                         1.79996
x1.x3.vdd.t349                         1.79983
x1.x3.vdd.t348                         1.79998
x1.x3.vss.t91                      0.000397158
x1.x3.vss.t609                      0.00012241
x1.x3.x5.x.t1                      4.60032e-05
x1.x3.vss.t608                     0.000128547
x1.x3.check[2].t3                      1.80024
x1.x3.vdd.t129                         1.79984
x1.x3.vdd.t128                         1.79995
x1.x3.vss.t138                     9.53649e-05
x1.x3.vdd.t331                          1.7999
x1.x3.vdd.t330                         1.79997
x1.x3.vss.t598                     7.17639e-05
x1.x3.comparator_out.t0                1.79984
x1.x3.vss.t353                      0.00016414
x1.x3.vss.t352                     4.68841e-05
x1.x3.x4.x.t31                         1.80007
x1.x3.vdd.t511                         1.79972
x1.x3.vdd.t510                         1.79993
x1.x3.vss.t643                     0.000133926
x1.x3.vss.t662                     0.000667879
x1.x3.vss.t178                      0.00019524
x1.x3.vss.t177                     0.000347564
x1.x3.vdd.t256                         1.79982
x1.x3.vdd.t254                         1.79988
x1.x3.vdd.t255                         1.79966
x1.x3.vss.t549                      0.00017333
x1.x3.vss.t548                     8.99328e-05
x1.x3.vdd.t164                         1.79997
x1.x3.vdd.t447                         1.79999
x1.x3.check[1].t2                      1.80022
x1.x3.vdd.t446                         1.79997
x1.x3.vss.t407                     0.000348594
x1.x3.vdd.t576                         1.79997
x1.x3.vdd.t575                         1.79997
x1.x3.vss.t397                     0.000412035
x1.x3.vdd.t322                         1.79989
x1.x3.vdd.t321                         1.79989
x1.x3.vss.t210                     0.000358375
x1.x3.vss.t261                      0.00017913
x1.x3.x36.q_n                          1.80002
x1.x3.vss.t260                     0.000110042
x1.x3.vss.t314                     0.000112155
x1.x3.vss.t313                     0.000462438
x1.x3.x4.a                             1.80001
x1.x3.vss.t286                     0.000555108
x1.x3.vss.t285                     -6.2031e-05
x1.x3.vdd.t251                         1.79997
x1.x3.vdd.t253                         1.79998
x1.x3.vdd.t252                         1.79994
x1.x3.vdd.t392                         1.79998
x1.x3.vdd.t519                          1.8001
x1.x3.vdd.t518                         1.79982
x1.x3.vdd.t366                         1.79997
x1.x3.vdd.t365                         1.79997
x1.x3.vdd.t386                         1.79963
x1.x3.vdd.t385                         1.79997
x1.x3.vss.t343                       0.0003605
x1.x3.vss.t342                     0.000203744
x1.x3.x4.x.t30                         1.79956
x1.x3.vdd.t509                         1.79975
x1.x3.vdd.t508                         1.79999
x1.x3.vdd.t360                         1.79997
x1.x3.vdd.t359                         1.79996
x1.x3.vss.t412                     0.000154585
x1.x3.check[0].t2                      1.79949
x1.x3.vss.t411                     0.000275733
x1.x3.vss.t189                     0.000581703
x1.x3.vss.t304                     0.000391274
x1.x3.x4.x.t36                          1.7997
x1.x3.vss.t303                     0.000510041
x1.x3.vss.t68                      8.84833e-05
x1.x3.vss.t70                     -5.12414e-05
x1.x3.vss.t69                      0.000174261
x1.x3.vdd.t570                         1.79993
x1.x3.vdd.t569                         1.79991
x1.x3.vss.t133                     0.000135295
x1.x3.check[1].t3                      1.79949
x1.x3.vss.t132                     9.69024e-05
x1.x3.vss.t244                     0.000255282
x1.x3.vdd.t726                         1.79952
x1.x3.vss.t243                     0.000499219
x1.x3.vss.t80                      0.000313087
x1.x3.x39.q_n                      2.10568e-05
x1.x3.vss.t79                       0.00036452
x1.x3.vss.t597                     0.000402596
x1.x3.x75.q_n                      0.000108684
x1.x3.vdd.t347                          1.7998
x1.x3.vdd.t346                         1.79977
x1.x3.vss.t7                       0.000143924
x1.x3.x5.x.t4                     -0.000136171
x1.x3.vss.t6                       0.000351449
x1.x3.vss.t507                     0.000167076
x1.x3.vss.t506                     0.000352079
x1.x3.vss.t442                      0.00033406
x1.x3.vdd.t162                         1.79989
x1.x3.x63.q_n                       0.00029961
x1.x3.vdd.t161                         1.79976
x1.x3.vdd.t78                           1.7999
x1.x3.vdd.t335                         1.79995
x1.x3.vdd.t523                         1.79998
x1.x3.vdd.t686                         1.79997
x1.x3.vdd.t685                         1.79997
x1.x3.vss.t154                     0.000134709
x1.x3.vss.t153                     0.000149708
x1.x3.check[3].t0                 -5.94045e-06
x1.x3.vss.t333                     0.000391828
x1.x3.vss.t332                      0.00014088
x1.x3.vss.t310                     0.000245849
x1.x3.vss.t309                     0.000328933
x1.x3.vss.t269                     3.68335e-05
x1.x3.x4.x.t37                         1.79982
x1.x3.vss.t432                     0.000233254
x1.x3.vss.t431                     0.000309056
x1.x3.vdd.t131                         1.79996
x1.x3.vdd.t182                         1.79983
x1.x3.vss.t242                     0.000265028
x1.x3.vdd.t727                         1.79947
x1.x3.vss.t241                     0.000158914
x1.x3.vss.t379                     0.000548885
x1.x3.vdd.t376                         1.79999
x1.x3.comparator_out.t1                 1.8005
x1.x3.vdd.t375                         1.79992
x1.x3.check[6].t2                       1.7995
x1.x3.vss.t625                     0.000203684
x1.x3.vss.t624                     0.000172116
x1.x3.vss.t369                     0.000386575
x1.x3.vss.t240                     0.000255282
x1.x3.vdd.t728                         1.79952
x1.x3.vss.t239                     0.000500307
x1.x3.vdd.t455                         1.79981
x1.x3.x4.x.t38                          1.8003
x1.x3.vdd.t454                         1.79988
x1.x3.x33.q_n                      1.38393e-05
x1.x3.vss.t97                      0.000360623
x1.x3.vss.t96                      0.000206523
x1.x3.vss.t519                     0.000119589
x1.x3.vss.t518                     1.85514e-05
x1.x3.vss.t206                     0.000802409
x1.x3.vss.t420                     0.000144022
x1.x3.x5.x.t5                     -0.000136066
x1.x3.vss.t419                     0.000351611
x1.x3.d[1].t1                           1.7999
x1.x3.vdd.t459                         1.79969
x1.x3.vdd.t458                         1.79992
x1.x3.vdd.t538                          1.7999
x1.x3.vss.t327                     0.000578752
x1.x3.vdd.t636                         1.79991
x1.x3.vdd.t434                         1.79993
x1.x3.vdd.t400                          1.7997
x1.x3.vdd.t399                         1.79986
x1.x3.vss.t267                     0.000191542
x1.x3.vss.t266                     0.000300789
x1.x3.vss.t378                     6.98688e-05
x1.x3.vss.t312                     5.66974e-05
x1.x3.vss.t268                     0.000377933
x1.x3.vss.t202                      0.00042568
x1.x3.vss.t201                      0.00051177
x1.x3.vss.t29                      6.06937e-05
x1.x3.vdd.t120                         1.79981
x1.x3.x48.q                            1.80005
x1.x3.vdd.t119                         1.79985
x1.x3.comparator_out.t2                1.80053
x1.x3.vdd.t116                         1.79999
x1.x3.vdd.t115                         1.79992
x1.x3.vdd.t152                         1.80018
x1.x3.vss.t674                     0.000686188
x1.x3.vdd.t151                         1.79984
x1.x3.x4.x.t29                         1.79947
x1.x3.vdd.t507                         1.79971
x1.x3.vdd.t506                         1.79996
x1.x3.vdd.t141                         1.79991
x1.x3.vdd.t140                         1.79988
x1.x3.vss.t347                     0.000132269
x1.x3.vss.t346                     5.36648e-05
x1.x3.x27.d                        5.88496e-06
x1.x3.vss.t371                     9.02272e-05
x1.x3.vss.t370                     0.000312408
x1.x3.vss.t494                      0.00037705
x1.x3.vss.t539                     0.000261462
x1.x3.vss.t538                     3.28359e-05
x1.x3.vss.t284                     0.000544521
x1.x3.vss.t283                    -0.000108667
x1.x3.vss.t168                     0.000176952
x1.x3.vss.t167                     0.000118817
x1.x3.vdd.t633                         1.79991
x1.x3.vdd.t188                         1.79984
x1.x3.vdd.t187                         1.79985
x1.x3.vdd.t280                         1.79995
x1.x3.vdd.t384                         1.79972
x1.x3.vdd.t383                         1.79995
x1.x3.vss.t368                     0.000670245
x1.x3.vdd.t329                         1.80035
x1.x3.x51.q_n                           1.7998
x1.x3.vdd.t328                         1.79972
x1.x3.vdd.t199                         1.79995
x1.x3.vss.t46                       6.2617e-05
x1.x3.vdd.t58                          1.79969
x1.x3.vdd.t57                          1.79986
x1.x3.vss.t527                     0.000258917
x1.x3.vss.t526                     0.000492951
x1.x3.vss.t146                     6.98117e-05
x1.x3.vdd.t194                         1.79982
x1.x3.vdd.t193                         1.79964
x1.x3.vdd.t289                         1.79966
x1.x3.d[3].t2                          1.80033
x1.x3.vdd.t619                         1.79984
x1.x3.vdd.t618                         1.79991
x1.x3.vdd.t49                          1.79989
x1.x3.reset.t0                         1.80072
x1.x3.vdd.t48                          1.79985
x1.x3.vss.t185                     0.000226225
x1.x3.vss.t184                     0.000305465
x1.x3.vdd.t118                         1.79999
x1.x3.comparator_out.t3                 1.8005
x1.x3.vdd.t117                         1.79992
x1.x3.vdd.t358                          1.7999
x1.x3.vdd.t357                         1.79988
x1.x3.vss.t67                       8.6713e-05
x1.x3.vss.t65                      0.000103085
x1.x3.vss.t66                       0.00034694
x1.x3.vdd.t168                         1.79991
x1.x3.vdd.t167                          1.7999
x1.x3.vdd.t650                         1.79977
x1.x3.vdd.t649                         1.79995
x1.x3.vdd.t114                         1.79993
x1.x3.vdd.t391                         1.79989
x1.x3.vss.t493                      0.00119989
x1.x3.vss.t377                     0.000258453
x1.x3.x60.q_n                       9.4365e-05
x1.x3.vss.t376                     0.000523833
x1.x3.vdd.t343                         1.79977
x1.x3.vdd.t342                         1.79994
x1.x3.vss.t25                      0.000182525
x1.x3.vss.t24                      0.000270436
x1.x3.vdd.t248                         1.80001
x1.x3.vdd.t250                         1.79983
x1.x3.vdd.t249                         1.79971
x1.x3.x42.q_n                      2.89612e-05
x1.x3.vss.t574                      0.00014593
x1.x3.vss.t573                     8.85666e-05
x1.x3.x5.x.t3                      0.000496696
x1.x3.vdd.t654                          1.7998
x1.x3.vdd.t653                         1.79974
x1.x3.check[5].t3                      1.80018
x1.x3.vdd.t305                         1.79998
x1.x3.vdd.t304                         1.79988
x1.x3.vdd.t1                            1.7999
x1.x3.vdd.t0                           1.79987
x1.x3.vdd.t303                         1.79982
x1.x3.vdd.t302                         1.79985
x1.x3.x4.x.t14                         1.80012
x1.x3.vss.t482                     0.000288981
x1.x3.vss.t481                     5.57333e-05
x1.x3.vdd.t123                         1.79977
x1.x3.vdd.t122                         1.79981
x1.x3.vss.t265                     0.000402579
x1.x3.vss.t647                     3.53772e-05
x1.x3.eob.t4                           1.79985
x1.x3.vss.t558                     0.000316589
x1.x3.vss.t557                     0.000388385
x1.x3.vss.t568                     0.000226274
x1.x3.vss.t567                     0.000305728
x1.x3.eob.t8                           1.80033
x1.x3.vdd.t196                         1.79999
x1.x3.vdd.t195                         1.79994
x1.x3.d[3].t3                          1.79962
x1.x3.vss.t588                     0.000119837
x1.x3.vss.t587                     0.000119108
x1.x3.vdd.t154                         1.79987
x1.x3.vdd.t153                          1.7998
x1.x3.vdd.t684                         1.79972
x1.x3.vdd.t683                         1.79953
x1.x3.vdd.t522                         1.79992
x1.x3.vss.t43                      0.000589808
x1.x3.x4.x.t39                         1.79968
x1.x3.vss.t502                      0.00034064
x1.x3.vss.t501                      0.00047394
x1.x3.vdd.t716                         1.79981
x1.x3.vdd.t39                           1.7999
x1.x3.vdd.t439                         1.79999
x1.x3.check[0].t3                      1.80015
x1.x3.vdd.t438                         1.79993
x1.x3.vdd.t463                         1.79984
x1.x3.vdd.t462                         1.79988
x1.x3.vss.t87                      0.000525463
x1.x3.vdd.t178                         1.79985
x1.x3.x4.x.t28                         1.79936
x1.x3.vdd.t505                         1.79972
x1.x3.vdd.t504                         1.79995
x1.x3.vdd.t247                         1.79998
x1.x3.vdd.t245                         1.79996
x1.x3.vdd.t246                         1.79997
x1.x3.vss.t594                     3.53329e-05
x1.x3.vdd.t527                         1.79982
x1.x3.x4.x.t40                          1.8003
x1.x3.vdd.t526                         1.79988
x1.x3.vdd.t105                         1.79993
x1.x3.vss.t152                     0.000150803
x1.x3.vss.t151                     5.05808e-05
x1.x3.vdd.t264                         1.79993
x1.x3.check[4].t1                      1.80023
x1.x3.vdd.t291                         1.79985
x1.x3.vdd.t290                         1.79966
x1.x3.vdd.t503                         1.79975
x1.x3.x4.x.t27                         1.79952
x1.x3.vdd.t502                         1.79999
x1.x3.vdd.t461                         1.79991
x1.x3.vdd.t282                          1.7999
x1.x3.vss.t422                     0.000148378
x1.x3.x5.x.t6                     -0.000137364
x1.x3.vss.t421                     0.000363712
x1.x3.vdd.t230                         1.79998
x1.x3.vdd.t232                          1.7999
x1.x3.vdd.t231                         1.79978
x1.x3.d[5].t2                           1.8003
x1.x3.vdd.t676                         1.79986
x1.x3.vdd.t675                          1.7999
x1.x3.vdd.t52                          1.79993
x1.x3.vss.t444                     0.000324838
x1.x3.x4.x.t41                         1.79965
x1.x3.vss.t443                     0.000386129
x1.x3.vss.t172                     0.000148524
x1.x3.reset.t1                         1.80004
x1.x3.vss.t171                      0.00028975
x1.x3.vss.t673                     9.99746e-05
x1.x3.vdd.t51                          1.79997
x1.x3.vdd.t729                         1.79947
x1.x3.vss.t238                     0.000278305
x1.x3.vss.t237                     0.000242074
x1.x3.x4.x.t13                         1.80062
x1.x3.vss.t480                     0.000426471
x1.x3.vss.t479                     6.65586e-05
x1.x3.vdd.t201                         1.79995
x1.x3.comparator_out.t4                1.80053
x1.x3.vdd.t451                         1.79999
x1.x3.vdd.t450                         1.79992
x1.x3.vss.t428                     0.000153623
x1.x3.comparator_out.t5                1.79981
x1.x3.vss.t427                     5.49622e-05
x1.x3.vss.t23                      0.000387702
x1.x3.vss.t440                      0.00010585
x1.x3.vss.t439                     0.000405021
x1.x3.vdd.t288                         1.79991
x1.x3.vdd.t287                         1.79988
x1.x3.vss.t406                     0.000357363
x1.x3.vdd.t113                          1.7999
x1.x3.vdd.t112                         1.79996
x1.x3.vss.t207                     3.40902e-05
x1.x3.vss.t15                      0.000300659
x1.x3.vdd.t124                         1.79991
x1.x3.vss.t401                     0.000174738
x1.x3.vss.t400                     0.000132716
x1.x3.vdd.t710                         1.79973
x1.x3.vdd.t709                         1.79986
x1.x3.vdd.t244                         1.79992
x1.x3.vdd.t242                         1.79995
x1.x3.vdd.t243                         1.79997
x1.x3.vdd.t88                           1.7997
x1.x3.vss.t591                     0.000397477
x1.x3.vdd.t127                         1.79966
x1.x3.x4.x.t12                         1.80024
x1.x3.vss.t478                     0.000298074
x1.x3.vss.t477                     0.000130217
x1.x3.vdd.t724                         1.79983
x1.x3.vdd.t723                         1.79988
x1.x3.vss.t89                        0.0002233
x1.x3.vss.t88                      0.000132841
x1.x3.d[5].t3                          1.79964
x1.x3.vss.t627                      0.00010734
x1.x3.vss.t626                      0.00012684
x1.x3.vdd.t437                         1.79995
x1.x3.vss.t675                     0.000696558
x1.x3.vdd.t284                         1.79995
x1.x3.vdd.t283                         1.79988
x1.x3.vss.t655                     0.000504215
x1.x3.vdd.t617                         1.79974
x1.x3.vdd.t616                          1.7998
x1.x3.vss.t532                     0.000443024
x1.x3.vss.t508                     0.000209297
x1.x3.vdd.t171                         1.79961
x1.x3.vss.t31                      0.000391211
x1.x3.vdd.t532                         1.79981
x1.x3.vdd.t531                         1.79995
x1.x3.vss.t58                      0.000221337
x1.x3.check[0].t4                      1.79967
x1.x3.vss.t57                      0.000410642
x1.x3.vss.t200                      0.00020485
x1.x3.vss.t199                     0.000214223
x1.x3.vss.t253                     0.000366134
x1.x3.check[1].t1                      1.80001
x1.x3.vss.t252                      0.00054457
x1.x3.x5.a                         7.48956e-05
x1.x3.vdd.t21                          1.80001
x1.x3.vdd.t20                           1.7998
x1.x3.vdd.t60                          1.79999
x1.x3.check[0].t5                      1.80026
x1.x3.vdd.t59                          1.79996
x1.x3.vdd.t730                         1.79947
x1.x3.vss.t236                     0.000277165
x1.x3.vss.t235                     0.000246136
x1.x3.vss.t52                       0.00025852
x1.x3.x57.q_n                      9.36355e-05
x1.x3.vss.t51                      0.000524482
x1.x3.vdd.t432                         1.79998
x1.x3.vdd.t566                         1.79965
x1.x3.d[4].t1                           1.7999
x1.x3.vdd.t565                         1.79991
x1.x3.vss.t125                     0.000153843
x1.x3.comparator_out.t6                1.79981
x1.x3.vss.t124                     5.50834e-05
x1.x3.vdd.t146                         1.79981
x1.x3.vdd.t145                         1.79995
x1.x3.vdd.t177                          1.7999
x1.x3.vdd.t176                         1.79986
x1.x3.vdd.t705                         1.79971
x1.x3.vdd.t631                         1.79996
x1.x3.vss.t30                       0.00012726
x1.x3.check[6].t3                      1.80017
x1.x3.vdd.t674                         1.79998
x1.x3.vdd.t673                         1.79988
x1.x3.x5.x.t7                     -6.97452e-05
x1.x3.vss.t590                     0.000122197
x1.x3.vss.t589                     0.000197135
x1.x3.vss.t446                     0.000391252
x1.x3.x4.x.t42                          1.7997
x1.x3.vss.t445                     0.000510148
x1.x3.vss.t395                     0.000224112
x1.x3.vss.t394                       0.0002124
x1.x3.vss.t166                     0.000266687
x1.x3.vss.t165                      0.00037349
x1.x3.vss.t60                      0.000270669
x1.x3.sel_bit[1].t0                    1.79952
x1.x3.vss.t59                      9.17307e-05
x1.x3.vdd.t175                         1.79984
x1.x3.vdd.t174                         1.79992
x1.x3.vdd.t658                         1.79999
x1.x3.sel_bit[1].t1                    1.79996
x1.x3.vdd.t657                         1.79996
x1.x3.check[6].t1                      1.80023
x1.x3.vdd.t97                          1.79985
x1.x3.vdd.t96                          1.79967
x1.x3.vdd.t101                         1.79992
x1.x3.vdd.t100                         1.79988
x1.x3.vss.t292                     0.000226867
x1.x3.vss.t291                     0.000311805
x1.x3.vss.t490                     0.000541177
x1.x3.vdd.t608                         1.79998
x1.x3.vss.t672                     8.43491e-05
x1.x3.vss.t671                     0.000396446
x1.x3.vss.t295                     0.000209356
x1.x3.vss.t188                     0.000363853
x1.x3.check[0].t0                      1.80002
x1.x3.vss.t187                     0.000525301
x1.x3.vss.t17                      0.000592552
x1.x3.vss.t661                     0.000258042
x1.x3.x54.q_n                      8.66831e-05
x1.x3.vss.t660                     0.000523475
x1.x3.eob.t2                           1.79996
x1.x3.vdd.t583                         1.79986
x1.x3.vdd.t582                          1.7999
x1.x3.vdd.t621                         1.79998
x1.x3.x5.x.t8                      0.000533926
x1.x3.vdd.t620                         1.79984
x1.x3.vdd.t378                         1.79965
x1.x3.d[5].t1                           1.7999
x1.x3.vdd.t377                         1.79992
x1.x3.vdd.t546                          1.7998
x1.x3.vdd.t545                         1.79991
x1.x3.vss.t619                     0.000204086
x1.x3.vdd.t420                         1.79991
x1.x3.vdd.t419                          1.7999
x1.x3.vdd.t15                          1.79982
x1.x3.vdd.t14                          1.79988
x1.x3.vdd.t601                         1.79992
x1.x3.vdd.t600                         1.79985
x1.x3.vss.t183                     0.000384979
x1.x3.vss.t182                     0.000374271
x1.x3.x4.x.t43                         1.79965
x1.x3.vss.t424                     0.000295577
x1.x3.vss.t423                     0.000330591
x1.x3.vdd.t394                         1.79986
x1.x3.vdd.t393                         1.79989
x1.x3.vss.t320                     0.000122405
x1.x3.vss.t319                     8.89307e-05
x1.x3.vss.t615                     0.000398038
x1.x3.vss.t614                     0.000483882
x1.x3.vdd.t599                         1.79984
x1.x3.vdd.t598                         1.79992
x1.x3.vss.t564                     0.000240924
x1.x3.d[7].t0                     -2.02284e-05
x1.x3.vss.t563                     0.000366935
x1.x3.vss.t618                     0.000543426
x1.x3.vdd.t104                         1.79998
x1.x3.vdd.t241                         1.79986
x1.x3.vdd.t239                         1.79998
x1.x3.vdd.t240                          1.7997
x1.x3.x5.x.t9                      0.000548312
x1.x3.vdd.t67                          1.80006
x1.x3.vdd.t66                          1.79989
x1.x3.vdd.t424                         1.79989
x1.x3.vdd.t423                         1.79995
x1.x3.vdd.t632                         1.79997
x1.x3.x4.x.t44                         1.80029
x1.x3.vdd.t443                         1.80034
x1.x3.vdd.t442                         1.79988
x1.x3.vss.t641                     0.000174977
x1.x3.vss.t640                     0.000191893
x1.x3.vdd.t554                         1.79991
x1.x3.vdd.t553                         1.79991
x1.x3.vss.t651                     0.000150899
x1.x3.vss.t650                      5.0598e-05
x1.x3.vdd.t160                         1.79995
x1.x3.vdd.t159                         1.79997
x1.x3.x4.x.t26                         1.79966
x1.x3.vdd.t501                         1.79974
x1.x3.vdd.t500                         1.79997
x1.x3.vdd.t460                         1.79998
x1.x3.vss.t396                     0.000139289
x1.x3.vss.t209                     0.000542739
x1.x3.vss.t489                     0.000421383
x1.x3.vdd.t372                         1.79988
x1.x3.vss.t16                      0.000177349
x1.x3.vss.t114                     0.000470927
x1.x3.vss.t81                      5.76088e-05
x1.x3.x4.x.t11                         1.80038
x1.x3.vss.t476                     0.000321381
x1.x3.vss.t475                      0.00019742
x1.x3.vdd.t644                          1.7999
x1.x3.x4.x.t45                         1.80028
x1.x3.vdd.t643                         1.79977
x1.x3.x4.x.t46                         1.80031
x1.x3.vdd.t646                         1.79986
x1.x3.vdd.t645                         1.79989
x1.x3.vss.t98                      0.000451091
x1.x3.vss.t566                     0.000384107
x1.x3.vss.t565                     0.000354155
x1.x3.vdd.t664                         1.79976
x1.x3.vdd.t663                         1.79955
x1.x3.x4.x.t47                         1.79965
x1.x3.vss.t531                      0.00029552
x1.x3.vss.t530                     0.000330456
x1.x3.vdd.t17                          1.79997
x1.x3.vss.t345                     0.000186835
x1.x3.vss.t344                     0.000211915
x1.x3.vss.t433                     4.75595e-05
x1.x3.vss.t450                     0.000965424
x1.x3.vdd.t173                         1.79986
x1.x3.vdd.t172                         1.79973
x1.x3.vss.t14                      8.33883e-05
x1.x3.vss.t13                      0.000404934
x1.x3.vss.t108                     0.000280361
x1.x3.vdd.t238                         1.79986
x1.x3.vdd.t236                         1.79998
x1.x3.vdd.t237                          1.7997
x1.x3.vss.t363                      0.00020608
x1.x3.vss.t362                     0.000143442
x1.x3.vss.t11                       0.00015162
x1.x3.vss.t10                      5.06082e-05
x1.x3.vss.t21                       0.00025834
x1.x3.vss.t20                      0.000353185
x1.x3.x4.x.t10                         1.80004
x1.x3.vss.t474                     0.000290462
x1.x3.vss.t473                     0.000130449
x1.x3.vss.t441                     0.000429634
x1.x3.vdd.t274                         1.79996
x1.x3.vdd.t273                         1.79992
x1.x3.vss.t113                     0.000118802
x1.x3.vss.t513                     5.76296e-05
x1.x3.vdd.t301                         1.79969
x1.x3.vdd.t300                         1.79994
x1.x3.x4.x.t48                          1.8003
x1.x3.vdd.t556                         1.79989
x1.x3.vdd.t555                         1.79989
x1.x3.vss.t364                     0.000283762
x1.x3.vss.t41                      0.000351687
x1.x3.vss.t40                      0.000375099
x1.x3.vdd.t564                         1.79987
x1.x3.vdd.t563                         1.79994
x1.x3.vdd.t327                         1.79968
x1.x3.vdd.t326                         1.79992
x1.x3.vss.t486                     0.000353057
x1.x3.vss.t112                     0.000147011
x1.x3.vss.t111                     0.000330487
x1.x3.vdd.t109                         1.79994
x1.x3.vss.t326                     0.000288083
x1.x3.vss.t325                     0.000552786
x1.x3.vdd.t471                         1.80014
x1.x3.vdd.t470                         1.79983
x1.x3.vss.t170                     0.000286547
x1.x3.vss.t120                     1.22372e-05
x1.x3.vdd.t731                         1.79953
x1.x3.vss.t234                      0.00024221
x1.x3.vss.t233                     0.000363537
x1.x3.vss.t294                     1.24955e-05
x1.x3.check[3].t2                 -2.68307e-05
x1.x3.vss.t293                     0.000289523
x1.x3.vss.t485                     0.000453579
x1.x3.comparator_out.t7                1.79981
x1.x3.vss.t127                     0.000162437
x1.x3.vss.t126                      5.0741e-05
x1.x3.vss.t64                      0.000141403
x1.x3.vss.t63                      8.00428e-05
x1.x3.vdd.t722                         1.79998
x1.x3.vdd.t605                         1.79979
x1.x3.vdd.t604                         1.79995
x1.x3.vdd.t537                         1.80004
x1.x3.vdd.t536                         1.79966
x1.x3.vss.t500                     0.000541601
x1.x3.vss.t560                     4.46947e-05
x1.x3.x66.q_n                      0.000102167
x1.x3.vdd.t615                         1.79976
x1.x3.vdd.t614                         1.79972
x1.x3.vdd.t286                         1.79987
x1.x3.vdd.t285                         1.79994
x1.x3.vdd.t589                         1.79996
x1.x3.x5.x.t10                     0.000547199
x1.x3.vdd.t69                          1.80006
x1.x3.vdd.t68                          1.79989
x1.x3.vss.t488                     0.000146937
x1.x3.vss.t487                     0.000329346
x1.x3.vdd.t111                         1.79991
x1.x3.vdd.t110                         1.79988
x1.x3.vdd.t341                          1.7998
x1.x3.vdd.t340                         1.79987
x1.x3.d[1].t0                          1.80008
x1.x3.vss.t436                     0.000329687
x1.x3.vss.t435                     0.000531568
x1.x3.vdd.t433                         1.79992
x1.x3.vdd.t281                         1.79996
x1.x3.vss.t33                      4.82303e-05
x1.x3.x4.x.t49                         1.79968
x1.x3.vss.t426                     0.000371056
x1.x3.vss.t425                     0.000505674
x1.x3.vdd.t50                           1.7999
x1.x3.d[0].t0                          1.79991
x1.x3.vdd.t670                          1.7997
x1.x3.vdd.t669                         1.79992
x1.x3.vdd.t390                         1.80004
x1.x3.vdd.t389                         1.79966
x1.x3.vss.t259                     0.000216507
x1.x3.vss.t258                     6.60519e-05
x1.x3.vss.t499                      4.6293e-05
x1.x3.vdd.t479                         1.79989
x1.x3.vdd.t478                         1.79996
x1.x3.vss.t119                     0.000341897
x1.x3.vss.t118                     0.000575354
x1.x3.vdd.t525                         1.79996
x1.x3.x4.x.t9                           1.8005
x1.x3.vss.t472                      0.00032512
x1.x3.vss.t471                     0.000240627
x1.x3.vss.t232                     0.000415116
x1.x3.vdd.t732                         1.79927
x1.x3.vss.t231                     0.000466174
x1.x3.vdd.t418                         1.79998
x1.x3.vdd.t417                         1.79997
x1.x3.vdd.t641                         1.79989
x1.x3.vdd.t640                         1.79989
x1.x3.vdd.t126                         1.79969
x1.x3.d[6].t1                          1.79997
x1.x3.vdd.t125                         1.79989
x1.x3.vss.t95                      0.000449725
x1.x3.vss.t94                       0.00034307
x1.x3.x4.x.t50                         1.80031
x1.x3.vdd.t449                         1.79994
x1.x3.vdd.t448                         1.79989
x1.x3.vdd.t311                         1.79984
x1.x3.vdd.t310                         1.79986
x1.x3.vdd.t309                         1.79985
x1.x3.vdd.t308                         1.79992
x1.x3.vdd.t678                         1.79999
x1.x3.comparator_out.t8                 1.8005
x1.x3.vdd.t677                         1.79992
x1.x3.vss.t556                     0.000285692
x1.x3.eob.t7                           1.79994
x1.x3.vss.t555                     0.000397497
x1.x3.vdd.t467                         1.79993
x1.x3.vdd.t466                         1.79988
x1.x3.vss.t361                     0.000320178
x1.x3.vss.t360                     0.000307657
x1.x3.vss.t637                     0.000361452
x1.x3.vss.t636                     0.000201996
x1.x3.vss.t302                     0.000580191
x1.x3.vdd.t299                         1.79964
x1.x3.vdd.t298                          1.7999
x1.x3.vdd.t233                         1.79999
x1.x3.vdd.t235                         1.79992
x1.x3.vdd.t234                          1.7998
x1.x3.check[4].t2                      1.79949
x1.x3.vss.t391                     0.000201853
x1.x3.vss.t390                     0.000160807
x1.x3.vdd.t99                          1.79989
x1.x3.vdd.t98                          1.79996
x1.x3.vss.t545                     0.000204355
x1.x3.vdd.t94                          1.79985
x1.x3.vdd.t93                          1.79973
x1.x3.vdd.t227                         1.79996
x1.x3.vdd.t229                         1.79991
x1.x3.vdd.t228                         1.79987
x1.x3.vdd.t692                         1.79986
x1.x3.vdd.t691                         1.79991
x1.x3.vss.t639                     0.000155247
x1.x3.vss.t638                     0.000312583
x1.x3.vss.t290                     0.000353067
x1.x3.vss.t289                     0.000549974
x1.x3.vss.t39                      0.000127338
x1.x3.vss.t38                      7.20901e-05
x1.x3.vdd.t25                          1.79998
x1.x3.d[4].t2                           1.8003
x1.x3.vdd.t412                         1.79986
x1.x3.vdd.t411                          1.7999
x1.x3.vdd.t192                          1.7999
x1.x3.vdd.t191                         1.79995
x1.x3.vss.t649                     0.000134447
x1.x3.vss.t648                     0.000149661
x1.x3.vss.t331                     0.000299502
x1.x3.check[4].t0                      1.80002
x1.x3.vss.t274                     0.000436815
x1.x3.vss.t273                     0.000298093
x1.x3.vdd.t499                         1.79972
x1.x3.x4.x.t25                         1.79947
x1.x3.vdd.t498                         1.79995
x1.x3.vdd.t144                         1.79986
x1.x3.vdd.t143                         1.79988
x1.x3.vss.t230                     0.000266344
x1.x3.vdd.t733                         1.79949
x1.x3.vss.t229                     5.00209e-05
x1.x3.vdd.t630                         1.79971
x1.x3.vss.t90                      5.22133e-05
x1.x3.vdd.t680                         1.79999
x1.x3.comparator_out.t9                 1.8005
x1.x3.vdd.t679                         1.79992
x1.x3.vss.t12                      9.77888e-05
x1.x3.vdd.t530                         1.79986
x1.x3.vdd.t529                         1.79988
x1.x3.vdd.t382                         1.79963
x1.x3.vdd.t381                         1.79996
x1.x3.vss.t145                     0.000559721
x1.x3.vss.t282                     0.000230833
x1.x3.vss.t281                    -0.000166615
x1.x3.vss.t228                     0.000257256
x1.x3.vdd.t734                         1.79951
x1.x3.vss.t227                     0.000497622
x1.x3.vdd.t422                         1.79988
x1.x3.vdd.t421                         1.79989
x1.x3.vss.t122                     0.000330041
x1.x3.vss.t121                     0.000539246
x1.x3.vdd.t370                         1.79989
x1.x3.vdd.t369                         1.79996
x1.x3.eob.t9                           1.79956
x1.x3.vss.t498                     7.96395e-05
x1.x3.vss.t497                     7.35421e-05
x1.x3.vdd.t607                          1.8001
x1.x3.vdd.t606                         1.79982
x1.x3.vdd.t83                          1.79994
x1.x3.sel_bit[1].t2                    1.79937
x1.x3.vss.t147                     0.000211271
x1.x3.vdd.t307                         1.79988
x1.x3.x48.q_n                      0.000291436
x1.x3.vdd.t306                         1.79979
x1.x3.vss.t349                     0.000291319
x1.x3.d[4].t3                          1.79965
x1.x3.vss.t387                     0.000106446
x1.x3.vss.t386                     0.000126431
x1.x3.x4.x.t8                          1.80058
x1.x3.vss.t470                     0.000296581
x1.x3.vss.t469                     0.000134892
x1.x3.vss.t330                     9.74948e-05
x1.x3.vss.t584                     0.000128498
x1.x3.vss.t583                     0.000163201
x1.x3.vss.t311                     0.000381196
x1.x3.x69.q_n                      0.000119235
x1.x3.vdd.t47                           1.7998
x1.x3.vdd.t46                          1.79977
x1.x3.eob.t10                          1.79968
x1.x3.vss.t496                     0.000152395
x1.x3.vss.t495                     0.000300906
x1.x3.vss.t196                      0.00015282
x1.x3.vss.t195                      0.00026802
x1.x3.vdd.t453                             1.8
x1.x3.x5.x.t11                      0.00053317
x1.x3.vdd.t452                         1.79984
x1.x3.vdd.t662                         1.79987
x1.x3.vdd.t661                         1.79958
x1.x3.vdd.t103                         1.79991
x1.x3.vdd.t652                         1.79988
x1.x3.x5.x.t2                      0.000494157
x1.x3.vdd.t651                         1.79977
x1.x3.vss.t62                      0.000214486
x1.x3.vss.t61                      0.000316893
x1.x3.sel_bit[0].t0                    1.79931
x1.x3.vss.t622                     0.000331094
x1.x3.vss.t250                     0.000262373
x1.x3.d[3].t1                          1.80007
x1.x3.vss.t249                     0.000505752
x1.x3.vdd.t313                         1.79999
x1.x3.check[3].t3                  0.000490704
x1.x3.vdd.t312                         1.79989
x1.x3.vdd.t297                         1.79961
x1.x3.vdd.t296                         1.79984
x1.x3.vss.t468                     0.000293656
x1.x3.x4.x.t7                          1.80012
x1.x3.vss.t467                     6.43458e-05
x1.x3.vdd.t577                         1.79979
x1.x3.vss.t93                      0.000210062
x1.x3.vss.t92                      0.000300214
x1.x3.vss.t554                     0.000307766
x1.x3.eob.t5                           1.79985
x1.x3.vss.t553                      0.00045026
x1.x3.vdd.t552                         1.79989
x1.x3.vdd.t551                         1.79983
x1.x3.vss.t1                        0.00055957
x1.x3.vdd.t35                          1.79978
x1.x3.x4.x.t51                          1.8003
x1.x3.vdd.t34                          1.79984
x1.x3.vdd.t521                         1.80004
x1.x3.vdd.t520                         1.79968
x1.x3.vss.t226                     0.000241049
x1.x3.vdd.t735                         1.79951
x1.x3.vss.t225                     0.000258458
x1.x3.vss.t664                     4.51347e-05
x1.x3.check[5].t1                      1.80023
x1.x3.vdd.t591                         1.79985
x1.x3.vdd.t590                         1.79966
x1.x3.vdd.t28                          1.79988
x1.x3.vdd.t544                         1.79977
x1.x3.vdd.t543                         1.79995
x1.x3.vdd.t163                         1.79991
x1.x3.vdd.t334                          1.7999
x1.x3.check[6].t0                      1.80002
x1.x3.vss.t100                     0.000438819
x1.x3.vss.t99                      0.000301483
x1.x3.vdd.t574                          1.7999
x1.x3.vdd.t573                          1.7999
x1.x3.vss.t572                     0.000124207
x1.x3.vss.t571                     2.28455e-05
x1.x3.vss.t22                      0.000626503
x1.x3.vss.t535                     0.000420081
x1.x3.vss.t517                     0.000249188
x1.x3.vss.t516                     0.000430154
x1.x3.vdd.t33                          1.79987
x1.x3.vdd.t32                          1.79995
x1.x3.vdd.t497                         1.79971
x1.x3.x4.x.t24                         1.79936
x1.x3.vdd.t496                         1.79994
x1.x3.vdd.t181                          1.7996
x1.x3.vss.t85                      0.000145885
x1.x3.vss.t84                      8.85367e-05
x1.x3.vdd.t572                         1.79988
x1.x3.vdd.t108                          1.7999
x1.x3.vdd.t698                         1.79997
x1.x3.vdd.t260                          1.7999
x1.x3.vss.t176                     0.000233645
x1.x3.vss.t175                     0.000325599
x1.x3.vdd.t190                          1.7998
x1.x3.vdd.t189                         1.79947
x1.x3.vss.t264                     0.000651312
x1.x3.vss.t613                      0.00020629
x1.x3.vss.t612                     0.000233036
x1.x3.vdd.t495                         1.79973
x1.x3.x4.x.t23                         1.79955
x1.x3.vdd.t494                         1.79996
x1.x3.vdd.t568                          1.7999
x1.x3.vdd.t567                         1.79995
x1.x3.vdd.t24                          1.79988
x1.x3.x4.x.t52                          1.8003
x1.x3.vdd.t37                          1.79982
x1.x3.vdd.t36                          1.79988
x1.x3.vdd.t158                         1.79982
x1.x3.vdd.t157                         1.79986
x1.x3.vss.t9                       0.000134692
x1.x3.vss.t8                       0.000149755
x1.x3.vdd.t95                          1.79981
x1.x3.vdd.t713                         1.79967
x1.x3.comparator_out.t10                1.8005
x1.x3.vdd.t184                         1.79998
x1.x3.vdd.t183                         1.79991
x1.x3.vss.t190                     0.000531275
x1.x3.vdd.t374                         1.79975
x1.x3.x3.a                             1.79998
x1.x3.vdd.t373                         1.79982
x1.x3.vdd.t226                         1.79998
x1.x3.vdd.t224                         1.79996
x1.x3.vdd.t225                         1.79997
x1.x3.vss.t107                     3.52568e-05
x1.x3.vdd.t270                         1.79983
x1.x3.vdd.t269                         1.79988
x1.x3.vdd.t690                         1.79986
x1.x3.vdd.t689                         1.79991
x1.x3.vdd.t517                         1.79993
x1.x3.vdd.t350                         1.79959
x1.x3.vdd.t272                         1.79997
x1.x3.vdd.t271                         1.79996
x1.x3.vdd.t13                          1.79991
x1.x3.d[6].t2                          1.80026
x1.x3.vdd.t41                          1.79985
x1.x3.vdd.t40                           1.7999
x1.x3.vss.t430                     0.000136863
x1.x3.x5.x.t12                    -0.000141295
x1.x3.vss.t429                     0.000343058
x1.x3.vss.t669                     0.000259344
x1.x3.vss.t668                     0.000128232
x1.x3.vdd.t387                          1.7998
x1.x3.vdd.t736                         1.79953
x1.x3.vss.t224                     0.000235934
x1.x3.vss.t223                     0.000432442
x1.x3.vss.t670                     0.000341317
x1.x3.vss.t297                      0.00032684
x1.x3.x4.x.t53                         1.79965
x1.x3.vss.t296                     0.000372028
x1.x3.vss.t452                     0.000539069
x1.x3.vdd.t737                         1.79947
x1.x3.vss.t222                     0.000278248
x1.x3.vss.t221                     0.000242258
x1.x3.vss.t434                     0.000451771
x1.x3.x4.x.t54                          1.8003
x1.x3.vdd.t316                          1.7999
x1.x3.vdd.t315                         1.79988
x1.x3.vss.t192                     0.000153627
x1.x3.comparator_out.t11               1.79981
x1.x3.vss.t191                     5.49515e-05
x1.x3.vdd.t11                          1.79986
x1.x3.vdd.t10                          1.79988
x1.x3.vdd.t635                         1.79984
x1.x3.vdd.t634                         1.79988
x1.x3.vss.t78                      0.000207871
x1.x3.vss.t77                      0.000183749
x1.x3.vdd.t560                         1.79994
x1.x3.vdd.t559                         1.79988
x1.x3.vdd.t404                          1.7999
x1.x3.vdd.t403                         1.79996
x1.x3.vss.t257                     0.000116057
x1.x3.vss.t256                     0.000483526
x1.x3.vss.t158                     0.000109849
x1.x3.vss.t157                     3.51347e-05
x1.x3.vdd.t603                         1.79983
x1.x3.vdd.t602                         1.79991
x1.x3.vdd.t493                         1.79971
x1.x3.x4.x.t22                         1.79931
x1.x3.vdd.t492                         1.79996
x1.x3.vss.t164                     0.000292412
x1.x3.vss.t163                     0.000488754
x1.x3.x4.x.t6                          1.80006
x1.x3.vss.t466                      0.00037905
x1.x3.vss.t465                     0.000487215
x1.x3.vdd.t29                          1.79995
x1.x3.vdd.t86                          1.79997
x1.x3.vdd.t85                          1.79999
x1.x3.vss.t559                     0.000397745
x1.x3.check[4].t3                      1.80018
x1.x3.vdd.t416                         1.79997
x1.x3.vdd.t415                         1.79988
x1.x3.x5.x.t13                      0.00054765
x1.x3.vdd.t71                          1.80006
x1.x3.vdd.t70                          1.79989
x1.x3.vss.t248                     3.54781e-05
x1.x3.d[6].t3                          1.79958
x1.x3.vss.t35                      0.000121389
x1.x3.vss.t34                      0.000118692
x1.x3.vdd.t65                          1.79982
x1.x3.vdd.t64                          1.79974
x1.x3.vdd.t121                         1.79994
x1.x3.vss.t271                     0.000365956
x1.x3.vss.t272                     0.000504059
x1.x3.vss.t194                     0.000145935
x1.x3.vss.t193                     7.98719e-05
x1.x3.vdd.t469                         1.79994
x1.x3.vss.t156                     0.000119803
x1.x3.vss.t155                     1.88008e-05
x1.x3.vdd.t45                          1.79973
x1.x3.vdd.t44                          1.79987
x1.x3.vdd.t491                         1.79972
x1.x3.x4.x.t21                         1.80008
x1.x3.vdd.t490                         1.79994
x1.x3.vdd.t139                          1.7999
x1.x3.vdd.t138                         1.79996
x1.x3.vss.t181                     0.000339711
x1.x3.vss.t180                     0.000340288
x1.x3.vdd.t398                         1.79981
x1.x3.vdd.t397                         1.79977
x1.x3.vss.t301                     0.000391146
x1.x3.vss.t596                     0.000165252
x1.x3.vss.t595                     0.000476859
x1.x3.vdd.t688                         1.79982
x1.x3.vdd.t687                         1.79995
x1.x3.vss.t449                     0.000229278
x1.x3.vss.t603                     0.000109415
x1.x3.vss.t602                     3.48848e-05
x1.x3.vdd.t268                         1.79998
x1.x3.vdd.t43                          1.79984
x1.x3.vdd.t42                          1.79997
x1.x3.vdd.t380                         1.79983
x1.x3.vdd.t379                             1.8
x1.x3.vss.t54                      0.000365168
x1.x3.x4.x.t55                         1.79966
x1.x3.vss.t53                       0.00046068
x1.x3.vss.t148                     0.000453157
x1.x3.vdd.t702                         1.79981
x1.x3.vdd.t701                         1.79995
x1.x3.vss.t348                     9.51929e-05
x1.x3.vss.t280                     0.000438067
x1.x3.vss.t279                    -5.60449e-05
x1.x3.vss.t300                     0.000127232
x1.x3.vss.t56                      0.000392085
x1.x3.x4.x.t56                          1.7997
x1.x3.vss.t55                      0.000509506
x1.x3.x5.x.t14                    -0.000159866
x1.x3.vss.t74                      0.000108937
x1.x3.vss.t73                      0.000179494
x1.x3.vss.t247                     0.000266996
x1.x3.eob.t1                            1.7999
x1.x3.vdd.t581                         1.79979
x1.x3.vdd.t580                         1.79988
x1.x3.vdd.t668                         1.79988
x1.x3.vdd.t667                         1.79984
x1.x3.vdd.t208                         1.79982
x1.x3.vdd.t207                          1.7996
x1.x3.vdd.t206                         1.79992
x1.x3.vdd.t205                         1.79988
x1.x3.vdd.t489                         1.79981
x1.x3.x4.x.t20                         1.79966
x1.x3.vdd.t488                         1.79998
x1.x3.vss.t208                     3.45421e-05
x1.x3.vss.t337                     0.000223171
x1.x3.vss.t336                     4.02454e-05
x1.x3.vss.t117                     0.000252694
x1.x3.vdd.t221                         1.79997
x1.x3.vdd.t223                         1.79998
x1.x3.vdd.t222                         1.79994
x1.x3.vss.t142                     0.000368065
x1.x3.vss.t141                     0.000390712
x1.x3.vss.t308                     0.000255256
x1.x3.vss.t307                     0.000587987
x1.x3.vss.t512                     0.000191569
x1.x3.vss.t511                     0.000302089
x1.x3.vss.t544                     9.52229e-05
x1.x3.vss.t255                     7.12798e-05
x1.x3.vdd.t38                          1.79994
x1.x3.vss.t186                     0.000523665
x1.x3.vss.t599                     0.000127271
x1.x3.vss.t582                     0.000333565
x1.x3.vss.t581                     0.000560067
x1.x3.eob.t11                           1.8003
x1.x3.vdd.t595                         1.79995
x1.x3.vdd.t594                         1.79987
x1.x3.vss.t174                     0.000172195
x1.x3.vss.t173                     8.12741e-05
x1.x3.vdd.t613                         1.79981
x1.x3.vdd.t612                         1.79993
x1.x3.vdd.t516                         1.79998
x1.x3.vdd.t102                         1.79997
x1.x3.vdd.t339                         1.79985
x1.x3.d[1].t2                          1.80029
x1.x3.vdd.t338                         1.79987
x1.x3.vdd.t166                         1.79997
x1.x3.vdd.t165                         1.79997
x1.x3.vdd.t27                          1.79989
x1.x3.check[2].t1                      1.80013
x1.x3.vdd.t26                          1.79985
x1.x3.vdd.t31                          1.79989
x1.x3.vdd.t30                          1.79989
x1.x3.vdd.t186                          1.7998
x1.x3.vdd.t185                         1.79994
x1.x3.vdd.t63                           1.7998
x1.x3.vdd.t62                          1.79985
x1.x3.vss.t162                     0.000174145
x1.x3.vss.t161                     0.000133972
x1.x3.vdd.t550                         1.79986
x1.x3.vdd.t549                         1.79988
x1.x3.vss.t375                     0.000115193
x1.x3.vss.t374                     8.69015e-05
x1.x3.vdd.t535                         1.79998
x1.x3.vss.t324                     0.000355487
x1.x3.vss.t323                     0.000338255
x1.x3.vdd.t92                          1.79997
x1.x3.vdd.t91                          1.79997
x1.x3.vss.t367                     0.000191699
x1.x3.vss.t366                     0.000302461
x1.x3.vdd.t414                         1.79973
x1.x3.x4.x.t57                         1.80031
x1.x3.vdd.t413                         1.79984
x1.x3.vss.t131                     0.000142366
x1.x3.check[1].t4                       1.7995
x1.x3.vss.t130                     0.000312441
x1.x3.d[0].t1                          1.80008
x1.x3.vss.t621                     0.000346198
x1.x3.vss.t620                     0.000537207
x1.x3.vss.t389                     0.000430779
x1.x3.x4.x.t58                         1.79968
x1.x3.vss.t388                     0.000493786
x1.x3.vss.t448                      0.00016095
x1.x3.vss.t447                     0.000352453
x1.x3.x4.x.t59                         1.79965
x1.x3.vss.t629                     0.000293978
x1.x3.vss.t628                     0.000325668
x1.x3.vdd.t656                             1.8
x1.x3.clk_sar.t0                   0.000565703
x1.x3.vdd.t655                         1.79982
x1.x3.x5.x.t0                      4.87414e-05
x1.x3.vss.t607                     0.000246146
x1.x3.vss.t606                     0.000201909
x1.x3.vss.t365                     0.000219501
x1.x3.vss.t578                     0.000611879
x1.x3.vdd.t515                         1.79986
x1.x3.vdd.t514                         1.79985
x1.x3.vdd.t198                         1.80022
x1.x3.vdd.t197                         1.79985
x1.x3.vdd.t597                         1.79985
x1.x3.vdd.t596                         1.79973
x1.x3.vss.t254                     0.000395121
x1.x3.vdd.t220                         1.79986
x1.x3.vdd.t218                         1.79998
x1.x3.vdd.t219                         1.79971
x1.x3.vss.t86                      4.23958e-05
x1.x3.vdd.t135                          1.7998
x1.x3.vdd.t134                         1.79977
x1.x3.vss.t525                     0.000167281
x1.x3.vss.t524                     0.000352248
x1.x3.vdd.t540                         1.79997
x1.x3.vdd.t539                         1.79996
x1.x3.vdd.t696                         1.79986
x1.x3.vdd.t695                         1.79987
x1.x3.vss.t50                      0.000114765
x1.x3.vss.t49                      8.69932e-05
x1.x3.vss.t667                      0.00013527
x1.x3.vss.t666                     4.44249e-05
x1.x3.vss.t251                     5.99685e-05
x1.x3.vss.t316                     0.000148279
x1.x3.d[1].t3                          1.79962
x1.x3.vss.t315                     0.000342668
x1.x3.vss.t278                     0.000551368
x1.x3.vss.t277                    -0.000106708
x1.x3.x5.x.t15                    -0.000161268
x1.x3.vss.t416                      0.00011003
x1.x3.vss.t415                     0.000150759
x1.x3.vss.t341                     0.000449605
x1.x3.vss.t340                     0.000344002
x1.x3.vdd.t571                         1.79996
x1.x3.vdd.t77                           1.7999
x1.x3.vdd.t76                          1.79986
x1.x3.vdd.t87                          1.79993
x1.x3.x4.x.t60                         1.79965
x1.x3.vss.t631                     0.000320392
x1.x3.vss.t630                     0.000332398
x1.x3.vdd.t84                          1.79983
x1.x3.sel_bit[0].t1                    1.79998
x1.x3.vdd.t671                         1.79997
x1.x3.vdd.t75                          1.79984
x1.x3.vdd.t74                          1.79992
x1.x3.vdd.t487                         1.79973
x1.x3.x4.x.t19                         1.79956
x1.x3.vdd.t486                         1.79998
x1.x3.vss.t601                     0.000218882
x1.x3.vss.t134                     0.000510501
x1.x3.vss.t510                     0.000386567
x1.x3.vss.t115                     0.000551541
x1.x3.vdd.t468                         1.79998
x1.x3.vdd.t660                         1.79987
x1.x3.vdd.t659                         1.79991
x1.x3.vss.t611                     0.000396123
x1.x3.vss.t610                     0.000427201
x1.x3.d[2].t1                              1.8
x1.x3.vdd.t611                         1.79972
x1.x3.vdd.t610                         1.79983
x1.x3.vdd.t428                         1.79989
x1.x3.vdd.t427                         1.79983
x1.x3.vss.t299                     0.000152913
x1.x3.check[2].t4                       1.7995
x1.x3.vss.t298                     0.000330537
x1.x3.vdd.t56                          1.79981
x1.x3.vdd.t55                          1.79977
x1.x3.vdd.t267                         1.79991
x1.x3.vss.t205                     0.000131026
x1.x3.vss.t204                     0.000304667
x1.x3.vss.t515                      0.00018474
x1.x3.vss.t514                     0.000112863
x1.x3.vss.t123                     5.22533e-05
x1.x3.vdd.t364                         1.79985
x1.x3.vdd.t363                         1.79973
x1.x3.vss.t464                     0.000321201
x1.x3.x4.x.t5                           1.8005
x1.x3.vss.t463                     0.000238789
x1.x3.vdd.t9                           1.79981
x1.x3.vdd.t8                           1.79995
x1.x3.vdd.t82                          1.79979
x1.x3.vdd.t81                          1.79995
x1.x3.vss.t635                     0.000452508
x1.x3.vss.t634                     0.000334693
x1.x3.vss.t76                      0.000393181
x1.x3.vss.t75                      0.000371803
x1.x3.vss.t663                     0.000382393
x1.x3.vdd.t558                         1.79987
x1.x3.vdd.t557                         1.79992
x1.x3.vss.t359                     0.000204761
x1.x3.vss.t358                     0.000191211
x1.x3.vdd.t402                         1.79991
x1.x3.vdd.t401                         1.79988
x1.x3.vss.t646                     0.000280874
x1.x3.vss.t654                     0.000499107
x1.x3.check[5].t0                      1.80002
x1.x3.vss.t562                     0.000436464
x1.x3.vss.t561                     0.000299727
x1.x3.vdd.t217                         1.79986
x1.x3.vdd.t215                         1.79998
x1.x3.vdd.t216                          1.7997
x1.x3.vdd.t295                         1.79964
x1.x3.vdd.t294                         1.79993
x1.x3.vss.t288                     0.000397022
x1.x3.vss.t287                     0.000496421
x1.x3.vdd.t708                         1.79981
x1.x3.vdd.t707                         1.79977
x1.x3.vss.t642                     0.000367137
x1.x3.vss.t509                     0.000669074
x1.x3.vss.t399                     0.000258917
x1.x3.vss.t398                     0.000493021
x1.x3.vdd.t682                         1.79985
x1.x3.vdd.t681                         1.79973
x1.x3.x4.x.t61                         1.79968
x1.x3.vss.t104                     0.000371309
x1.x3.vss.t103                     0.000503232
x1.x3.sel_bit[0].t2                    1.79933
x1.x3.vss.t623                     0.000266901
x1.x3.vdd.t720                         1.79987
x1.x3.vdd.t719                         1.79997
x1.x3.vdd.t16                           1.7999
x1.x3.sel_bit[0].t3                    1.79992
x1.x3.vdd.t672                         1.79996
x1.x3.vdd.t706                         1.79966
x1.x3.vss.t418                     0.000143656
x1.x3.x5.x.t16                    -0.000136206
x1.x3.vss.t417                     0.000352992
x1.x3.d[2].t2                          1.80023
x1.x3.vdd.t19                          1.79986
x1.x3.vdd.t18                          1.79992
x1.x3.vss.t617                      0.00022105
x1.x3.clk_sar.t1                  -7.72652e-05
x1.x3.vss.t616                     0.000394174
x1.x3.vdd.t715                         1.79996
x1.x3.vdd.t593                         1.79972
x1.x3.d[7].t1                       0.00045759
x1.x3.vdd.t592                         1.79973
x1.x3.vss.t37                      0.000277205
x1.x3.vss.t36                      0.000550504
x1.x3.vdd.t73                          1.79985
x1.x3.vdd.t72                          1.79973
x1.x3.vdd.t436                         1.79999
x1.x3.comparator_out.t12                1.8005
x1.x3.vdd.t435                         1.79992
x1.x3.vss.t0                       0.000251596
x1.x3.vss.t198                       0.0003721
x1.x3.vss.t197                     0.000431949
x1.x3.vdd.t406                             1.8
x1.x3.x5.x.t17                     0.000540915
x1.x3.vdd.t405                         1.79984
x1.x3.vss.t645                      0.00012339
[...]
x2.vdd.n46                             1.79996
x2.vdd.n8                              1.79995
x2.vdd.n7                              1.79995
x2.vdd.n361                            1.79998
x2.vdd.n258                            1.79998
x2.vdd.n255                            1.79998
x2.vdd.n252                            1.79998
x2.vdd.n42                             1.79996
x2.vdd.n39                             1.79996
x2.vdd.n261                            1.79997
x2.vdd.n148                            1.79997
x2.vdd.n45                             1.79996
x2.vdd.n165                            1.79997
x2.vdd.n113                            1.79996
x2.vdd.n77                             1.79996
x2.vdd.n61                             1.79996
x2.vdd.n311                            1.79998
x2.vdd.n277                            1.79998
x2.vdd.n131                            1.79997
x2.vdd.n95                             1.79996
x2.vdd.n0                              1.79995
x2.vdd.n49                             1.79996
x2.vdd.n345                            1.79998
x2.vdd.n293                            1.79998
x2.vdd.n328                            1.79998
x2.vdd.n319                            1.79998
x2.vdd.n263                            1.79997
x2.vdd.n9                              1.79995
x2.vdd.n323                            1.79998
x2.vdd.n288                            1.79998
x2.vdd.n199                            1.79997
x2.vdd.n213                            1.79997
x2.vdd.n226                            1.79997
x2.vdd.n143                            1.79997
x2.vdd.n108                            1.79996
x2.vdd.n3                              1.79995
x2.ready.n0                            1.80003
x2.vss.n109                        7.19558e-05
x2.vss.n104                        5.13074e-05
x2.vss.n121                        7.59516e-05
x2.vss.n81                         5.86649e-05
x2.vss.n67                         7.61985e-05
x2.vss.n72                         8.53902e-05
x2.vss.n91                         4.83061e-05
x2.vss.n115                        6.16064e-05
x2.vss.n114                        7.21245e-05
x2.vss.n34                         7.21588e-05
x2.vss.n87                         6.70912e-05
x2.vss.n98                         6.63964e-05
x2.vss.n42                         7.78352e-05
x2.vss.n62                         7.00043e-05
x2.vss.n38                         7.56035e-05
x2.vss.n162                        2.71361e-05
x2.vss.n33                         5.19925e-05
x2.vss.n58                         7.56272e-05
x2.vss.n97                         4.30161e-05
x2.vss.n96                         0.000117123
x2.vss.n86                         4.63045e-05
x2.vss.n85                         0.000124147
x2.vss.n166                         2.2695e-05
x2.vss.n120                        9.64816e-05
x2.vss.n53                         7.70819e-05
x2.vss.n108                        8.92689e-05
x2.vss.n125                        6.91277e-05
x2.vss.n19                         5.05239e-05
x2.vss.n147                        2.31844e-05
x2.vss.n71                         4.23311e-05
x2.vss.n113                        2.87779e-05
x2.vss.n12                         5.02613e-05
x2.vss.n138                        2.28946e-05
x2.vss.n8                          4.40994e-05
x2.vss.n3                          2.50147e-05
x2.vss.n131                        7.07523e-05
x2.vss.n143                        2.33234e-05
x2.vss.n15                         5.07039e-05
x2.vss.n80                         4.03236e-05
x2.vss.n103                        3.22465e-05
x2.vss.n51                         4.52513e-05
x2.vss.n47                         4.52741e-05
x2.vss.n46                         4.52741e-05
x2.vss.n7                          3.68043e-05
x2.vss.n140                        2.31485e-05
x2.vss.n139                        2.31485e-05
x2.vss.n145                        2.32426e-05
x2.vss.n144                        2.32426e-05
x2.vss.n137                        2.29033e-05
x2.vss.n136                        2.29033e-05
x2.vss.n150                        2.30211e-05
x2.vss.n149                        2.30211e-05
x2.vss.n14                         5.07039e-05
x2.vss.n13                         5.07039e-05
x2.vss.n17                         5.06028e-05
x2.vss.n16                         5.06028e-05
x2.vss.n21                         5.04861e-05
x2.vss.n20                         5.04861e-05
x2.vss.n24                         5.03158e-05
x2.vss.n23                         5.03158e-05
x2.vss.n10                         5.01336e-05
x2.vss.n9                          5.01336e-05
x2.vss.n142                        2.33234e-05
x2.vss.n141                        2.33234e-05
x2.vss.n32                         5.19925e-05
x2.vss.n49                         4.52741e-05
x2.vss.n48                         4.52741e-05
x2.vss.n44                         5.18773e-05
x2.vss.n43                         6.48563e-05
x2.vss.n132                        5.11167e-05
x2.vss.n126                        5.15379e-05
x2.vss.n25                         5.03158e-05
x2.vss.n148                        2.31485e-05
x2.vss.n146                        2.32426e-05
x2.vss.n151                        2.30211e-05
x2.vss.n18                         5.06028e-05
x2.vss.n22                         5.04861e-05
x2.vss.n50                         4.52741e-05
x2.vss.n45                         4.52844e-05
x2.vss.n6                          3.23665e-05
x2.vss.n5                          3.23665e-05
x2.vss.n4                          3.23665e-05
x2.vss.n36                         5.15328e-05
x2.vss.n35                         6.18458e-05
x2.vss.n40                          5.1697e-05
x2.vss.n39                         6.36503e-05
x2.vss.n83                         4.39864e-05
x2.vss.n82                         5.13256e-05
x2.vss.n78                         4.12857e-05
x2.vss.n77                         4.12857e-05
x2.vss.n76                         4.12857e-05
x2.vss.n74                         5.10179e-05
x2.vss.n73                         6.82041e-05
x2.vss.n69                         4.98297e-05
x2.vss.n68                         6.30141e-05
x2.vss.n64                         4.91512e-05
x2.vss.n63                         5.95777e-05
x2.vss.n60                         5.07593e-05
x2.vss.n59                         6.31932e-05
x2.vss.n55                         5.03223e-05
x2.vss.n54                         6.37021e-05
x2.vss.n100                        4.26971e-05
x2.vss.n99                         5.45468e-05
x2.vss.n93                         3.89714e-05
x2.vss.n92                         4.36388e-05
x2.vss.n89                         4.61924e-05
x2.vss.n88                         5.66418e-05
x2.vss.n2                          1.41478e-05
x2.vss.n1                          1.41478e-05
x2.vss.n0                          1.41478e-05
x2.vss.n168                        1.68134e-05
x2.vss.n167                        1.97542e-05
x2.vss.n164                        1.96945e-05
x2.vss.n163                        2.34153e-05
x2.vss.n134                        2.54602e-05
x2.vss.n133                        3.82885e-05
x2.vss.n128                        2.85545e-05
x2.vss.n127                        4.00462e-05
x2.vss.n123                        3.52654e-05
x2.vss.n122                        5.56085e-05
x2.vss.n117                        3.39979e-05
x2.vss.n116                        4.78022e-05
x2.vss.n111                        3.76324e-05
x2.vss.n110                        5.47941e-05
x2.vss.n106                        3.48478e-05
x2.vss.n105                        4.30776e-05
x2.vss.n155                        2.29033e-05
x2.vss.n11                         5.01336e-05
x2.vss.n170                        1.41478e-05
x2.vss.n41                         4.56247e-05
x2.vss.n84                         4.02581e-05
x2.vss.n79                         4.12857e-05
x2.vss.n75                         4.22873e-05
x2.vss.n70                          4.3132e-05
x2.vss.n65                         4.38545e-05
x2.vss.n61                         4.44428e-05
x2.vss.n101                        3.44977e-05
x2.vss.n94                         3.66004e-05
x2.vss.n90                         3.85945e-05
x2.vss.n102                        3.23665e-05
x2.vss.n169                        1.53195e-05
x2.vss.n165                        1.78043e-05
x2.vss.n129                        2.27167e-05
x2.vss.n124                         2.4931e-05
x2.vss.n118                        2.69853e-05
x2.vss.n112                        2.89142e-05
x2.vss.n107                         3.0667e-05
x2.vss.n160                        2.02614e-05
x2.vss.n159                        2.12937e-05
x2.vss.n30                         4.79422e-05
x2.vss.n28                         5.01336e-05
x2.vss.n31                         4.60486e-05
x2.vss.n158                        2.13101e-05
x2.vss.n157                        2.21985e-05
x2.vss.n56                          4.4956e-05
x2.vss.n135                         2.0315e-05
x2.vss.n156                        2.22105e-05
x2.vss.n37                         5.02146e-05
x2.vss.n57                         4.49131e-05
x2.vss.n95                         3.65413e-05
x2.vss.n26                         5.01965e-05
x2.vss.n152                        2.29395e-05
x2.vss.n66                         4.38192e-05
x2.vss.n119                        2.49959e-05
x2.vss.n154                        2.29044e-05
x2.vss.n153                        2.29254e-05
x2.vss.n27                         5.01567e-05
x2.vss.n130                        2.06105e-05
x2.vss.n161                         1.9723e-05
x2.vss.n52                         4.50255e-05
x2.vss.n29                         4.79422e-05
x2.comp_outn.n0                        1.80004
x2.comp_outn.n1                        1.80004
net11                                  1.80004
x2.comp_outn.n4                        1.80004
x2.comp_outn.n2                        1.80004
x2.comp_outn.n5                        1.80004
x2.comp_outn.n3                        1.80004
x2.comp_outn.n6                        1.80004
x2.cdac_vn.n0                        0.0646759
x2.cdac_vn.n1                        0.0647304
x2.cdac_vn.n2                        0.0647985
x2.cdac_vn.n3                        0.0647757
x2.cdac_vn.n4                        0.0646494
x2.cdac_vn.n5                        0.0643563
x2.cdac_vn.n6                        0.0639198
tah_vn                               0.0637557
x2.cdac_vp.n0                         0.950968
x2.cdac_vp.n6                         0.950839
x2.cdac_vp.n5                          0.95095
x2.cdac_vp.n4                         0.951063
x2.cdac_vp.n3                         0.951087
x2.cdac_vp.n2                         0.951072
x2.cdac_vp.n1                          0.95102
tah_vp                                0.950869
x2.comp_outp.n1                        1.80016
x2.comp_outp.n0                        1.80016
x2.comp_outp.n3                        1.80016
x2.comp_outp.n2                        1.80016
x2.comp_outp.n4                        1.80016
x2.clk.n4                          6.80816e-05
x2.clk.n3                          6.82289e-05
x2.clk.n1                          0.000115869
x2.clk.n0                          0.000113397
x2.clk.n5                          3.64772e-05
x2.clk.n2                          3.22427e-05
x2.clk.n6                          1.75117e-05
x3.net2                                0.89961
x3.net1                               0.899708
x3.sw2                                 0.90003
x3.sw3                                0.900069
x3.sw4                                0.900056
x3.sw5                                 0.90007
x3.sw6                                0.900112
sw6                                0.000472246
vref                                       0.9
sw2                               -0.000479085
sw3                               -6.34474e-05
sw4                               -0.000175298
sw5                               -1.70727e-05
x3.net4                               0.899699
x3.net3                               0.899741
x3.swd2                               0.900047
x3.swd3                               0.900069
x3.swd4                               0.900074
x3.swd5                               0.900071
x3.swd6                               0.900121
swd6                               0.000571626
swd2                              -0.000268945
swd3                              -6.08548e-05
swd4                               4.20067e-05
swd5                              -5.63522e-06
x4.net2                             0.00226406
x4.net1                             0.00230554
x4.sw2                              0.00149376
x4.sw3                              0.00222859
x4.sw4                              0.00272944
x4.sw5                            -0.000295458
x4.sw6                              0.00717321
net5                                    1.8035
net1                                   1.79835
net2                                   1.79968
net3                                   1.79921
net4                                   1.79903
x4.net4                             0.00224842
x4.net3                             0.00230586
x4.swd2                             0.00166064
x4.swd3                             0.00206176
x4.swd4                             0.00289022
x4.swd5                            -0.00010642
x4.swd6                             0.00446466
net6                                   1.80313
net10                                  1.79843
net9                                    1.7996
net8                                   1.79957
net7                                   1.79918
vip                                        1.8
vin                                        0.9
net12                                        0
net13                                        0
net14                                        0
net15                                      1.8
net16                                      1.8
net17                                      1.8
net18                                      1.8
net19                                        0
x6.net1                             0.00041043
x6.net2                             0.00069902
x6.net3                           -6.71677e-05
x6.net4                            0.000201498
x7.net1                              0.0024867
x7.net2                             0.00135947
x7.net3                             0.00192244
x7.net4                             0.00226905
x8.net1                                1.79091
x8.net2                                1.79707
x8.net3                                1.79184
x8.net4                                1.79135
x9.net1                                1.79204
x9.net2                                1.79976
x9.net3                                1.79244
x9.net4                                1.79215
net20                                        0
net21                                      1.8
net22                                      1.8
net23                                        0
net24                                        0
net25                                      1.8
net26                                      1.8
net27                                        0
net28                                        0
net29                                        0
net30                                        0
net31                                      1.8
net32                                      1.8
net33                                      1.8
net34                                      1.8
net35                                        0
x10.net1                               1.05851
net37                                 0.687119
net38                                  1.79998
x10.net3                              0.764622
x10.net2                               1.79996
x11.net1                               1.05851
net41                                 0.687119
net42                                  1.79998
x11.net3                              0.764622
x11.net2                               1.79996
net44                                        0
net45                                      1.8
net46                                      1.8
net47                                        0
v18#branch                                   0
v17#branch                                   0
v16#branch                                   0
v15#branch                        -7.02065e-08
v8#branch                                    0
v7#branch                          1.96231e-07
v6#branch                         -4.63408e-07
v5#branch                         -3.51033e-08
v76#branch                                   0
v75#branch                                   0
v74#branch                                   0
v73#branch                        -9.52557e-08
v72#branch                        -4.76279e-08
v71#branch                                   0
v70#branch                                   0
v69#branch                        -1.05497e-07
v68#branch                                   0
v67#branch                         1.70906e-07
v66#branch                        -4.71814e-07
v65#branch                                   0
v64#branch                                   0
v63#branch                         1.69854e-07
v62#branch                        -4.72567e-07
v61#branch                        -5.27487e-08
v35#branch                                   0
v30#branch                                   0
v29#branch                                   0
v28#branch                         -9.6246e-08
v27#branch                                   0
v26#branch                         2.14868e-07
v25#branch                        -4.63784e-07
v20#branch                         -4.8123e-08
v19#branch                                   0
v14#branch                                   0
v13#branch                                   0
v12#branch                        -1.27358e-07
v11#branch                                   0
v10#branch                         1.30395e-07
v9#branch                         -4.78048e-07
v3#branch                         -6.36791e-08
v4#branch                         -6.24178e-07
v2#branch                         -3.18481e-05
v1#branch                          1.68181e-05
v59#branch                        -4.33513e-06
v58#branch                        -3.95651e-06
v60#branch                        -1.58632e-09
v57#branch                          0.00286241
v56#branch                        -0.000659596
v55#branch                         0.000260865
v54#branch                         0.000768645
v53#branch                          0.00179662
v52#branch                         -0.00500502
v51#branch                                   0
v50#branch                                   0
v49#branch                                   0
v48#branch                         -1.6033e-07
v47#branch                        -8.01649e-08
v46#branch                                   0
v45#branch                                   0
v44#branch                        -9.12832e-08
v43#branch                                   0
v42#branch                         1.61506e-07
v41#branch                        -4.73378e-07
v40#branch                                   0
v39#branch                                   0
v38#branch                         2.01442e-07
v37#branch                        -4.69966e-07
v36#branch                        -4.56416e-08


No. of Data Rows : 25047
Warning - approaching max data size: current size = 8385.008 MB, limit = 8513.816 MB
ERROR: (internal)  This operation is not defined for display type PrinterOnly.
Can't open viewport for graphics.
Warning - approaching max data size: current size = 8386.383 MB, limit = 8513.469 MB
Note: No ".plot", ".print", or ".fourier" lines; no simulations run
